49800004
     RDKit          3D

183184  0  0  1  0  0  0  0  0999 V2000
    5.0088    3.4837    2.4102 O   0  0  0  0  0  0  0  0  0  0  0  0
    4.8178    1.6217   -2.5305 O   0  0  0  0  0  0  0  0  0  0  0  0
    1.4096    1.3302    0.0602 O   0  0  0  0  0  0  0  0  0  0  0  0
    1.4493    4.5976   -1.5047 O   0  0  0  0  0  0  0  0  0  0  0  0
    1.8616    2.0805    4.7533 O   0  0  0  0  0  0  0  0  0  0  0  0
    1.7342   -5.2918    3.1979 O   0  0  0  0  0  0  0  0  0  0  0  0
   -0.7233   -0.6644   -3.3741 O   0  0  0  0  0  0  0  0  0  0  0  0
   -3.4036   -6.7954   -1.6851 O   0  0  0  0  0  0  0  0  0  0  0  0
    3.6882   -1.0752    1.6757 O   0  0  0  0  0  0  0  0  0  0  0  0
    1.4564   -4.4674    0.2278 O   0  0  0  0  0  0  0  0  0  0  0  0
   -0.9693   -4.8029   -3.4980 O   0  0  0  0  0  0  0  0  0  0  0  0
   -1.5122   -2.3741    0.9633 O   0  0  0  0  0  0  0  0  0  0  0  0
   -3.2860   -5.7266    0.6341 O   0  0  0  0  0  0  0  0  0  0  0  0
    4.1712    3.2305   -1.0312 N   0  0  0  0  0  0  0  0  0  0  0  0
    2.9710    3.0834    1.4604 N   0  0  0  0  0  0  0  0  0  0  0  0
    1.8899    2.8674   -2.9335 N   0  0  0  0  0  0  0  0  0  0  0  0
   -0.0100    1.3686   -1.7168 N   0  0  0  0  0  0  0  0  0  0  0  0
   -0.3593   -1.5007   -1.2914 N   0  0  0  0  0  0  0  0  0  0  0  0
    2.2610    0.8884    2.8567 N   0  0  0  0  0  0  0  0  0  0  0  0
   -1.9604   -3.6384   -1.8031 N   0  0  0  0  0  0  0  0  0  0  0  0
    2.5529   -2.7561    2.6851 N   0  0  0  0  0  0  0  0  0  0  0  0
    3.0082   -2.8854   -0.3872 N   0  0  0  0  0  0  0  0  0  0  0  0
   -1.0829   -5.4914    0.0724 N   0  0  0  0  0  0  0  0  0  0  0  0
   -2.6720   -3.6113    2.4764 N   0  0  0  0  0  0  0  0  0  0  0  0
    0.5432    5.6990    3.8253 N   0  0  0  0  0  0  0  0  0  0  0  0
   -1.7265    5.3917   -1.5030 N   0  0  0  0  0  0  0  0  0  0  0  0
   -5.8745   -1.7840   -1.7453 N   0  0  0  0  0  0  0  0  0  0  0  0
   -0.7863   -1.8662    5.3990 N   0  0  0  0  0  0  0  0  0  0  0  0
   -1.7484   -6.3872    5.7828 N   0  0  0  0  0  0  0  0  0  0  0  0
    4.9681    2.7100    0.0837 C   0  0  1  0  0  0  0  0  0  0  0  0
    6.4385    3.1388   -0.0556 C   0  0  0  0  0  0  0  0  0  0  0  0
    7.4379    2.2714    0.7395 C   0  0  0  0  0  0  0  0  0  0  0  0
   -4.8934    2.8103    0.6663 C   0  0  0  0  0  0  0  0  0  0  0  0
   -3.8904    1.6393    0.7412 C   0  0  0  0  0  0  0  0  0  0  0  0
    3.2322    3.3113   -3.2925 C   0  0  1  0  0  0  0  0  0  0  0  0
    2.1968    3.3497    2.6817 C   0  0  1  0  0  0  0  0  0  0  0  0
    0.8709   -0.8104   -0.9301 C   0  0  1  0  0  0  0  0  0  0  0  0
    4.3470    3.1809    1.4219 C   0  0  0  0  0  0  0  0  0  0  0  0
   -3.5058    1.2459    2.1730 C   0  0  0  0  0  0  0  0  0  0  0  0
   -0.2099    2.8195   -1.6722 C   0  0  2  0  0  0  0  0  0  0  0  0
    2.0529   -1.1518   -1.8445 C   0  0  0  0  0  0  0  0  0  0  0  0
    4.1778    2.6399   -2.2785 C   0  0  0  0  0  0  0  0  0  0  0  0
   -2.6056    0.0097    2.2171 C   0  0  0  0  0  0  0  0  0  0  0  0
   -5.2149    3.2038   -0.7909 C   0  0  0  0  0  0  0  0  0  0  0  0
    3.5979    2.9108   -4.7277 C   0  0  0  0  0  0  0  0  0  0  0  0
    8.8231    2.9240    0.7097 C   0  0  0  0  0  0  0  0  0  0  0  0
    7.5334    0.8465    0.1886 C   0  0  0  0  0  0  0  0  0  0  0  0
    0.7726    3.7760    2.2939 C   0  0  0  0  0  0  0  0  0  0  0  0
   -2.2130   -2.4417   -2.6016 C   0  0  2  0  0  0  0  0  0  0  0  0
    2.1869   -0.4223    3.4910 C   0  0  1  0  0  0  0  0  0  0  0  0
   -1.2940    3.2383   -2.6675 C   0  0  0  0  0  0  0  0  0  0  0  0
    0.7378    0.7131   -0.7697 C   0  0  0  0  0  0  0  0  0  0  0  0
    1.1276    3.5140   -1.9891 C   0  0  0  0  0  0  0  0  0  0  0  0
    2.4941   -2.6096   -1.7140 C   0  0  0  0  0  0  0  0  0  0  0  0
    2.1443    2.0705    3.5560 C   0  0  0  0  0  0  0  0  0  0  0  0
    3.1546   -3.8093    1.8665 C   0  0  1  0  0  0  0  0  0  0  0  0
   -4.3884    4.0516    1.4117 C   0  0  0  0  0  0  0  0  0  0  0  0
   -3.3690   -1.3078    2.0780 C   0  0  0  0  0  0  0  0  0  0  0  0
   -1.1000   -5.9126   -1.3408 C   0  0  2  0  0  0  0  0  0  0  0  0
   -0.9960   -1.4959   -2.5078 C   0  0  0  0  0  0  0  0  0  0  0  0
   -1.8068   -4.7762    2.3110 C   0  0  1  0  0  0  0  0  0  0  0  0
   -3.4575   -1.6947   -2.1129 C   0  0  0  0  0  0  0  0  0  0  0  0
    0.7256   -0.7622    3.8209 C   0  0  0  0  0  0  0  0  0  0  0  0
    2.8655   -1.4293    2.5259 C   0  0  0  0  0  0  0  0  0  0  0  0
    3.0136   -5.1857    2.5503 C   0  0  1  0  0  0  0  0  0  0  0  0
   -0.0218    4.4145    3.4329 C   0  0  0  0  0  0  0  0  0  0  0  0
    2.7133    3.5772   -5.7577 C   0  0  0  0  0  0  0  0  0  0  0  0
    2.4570   -3.8013    0.4881 C   0  0  0  0  0  0  0  0  0  0  0  0
   -1.3080   -4.7359   -2.3171 C   0  0  0  0  0  0  0  0  0  0  0  0
   -2.0094   -7.1002   -1.7383 C   0  0  1  0  0  0  0  0  0  0  0  0
   -5.8019    2.0768   -1.6274 C   0  0  0  0  0  0  0  0  0  0  0  0
   -1.5078    4.7483   -2.7936 C   0  0  0  0  0  0  0  0  0  0  0  0
   -2.4161   -2.4505    1.7941 C   0  0  0  0  0  0  0  0  0  0  0  0
   -2.0296   -5.8309    3.3987 C   0  0  0  0  0  0  0  0  0  0  0  0
   -2.1412   -5.3966    0.9381 C   0  0  0  0  0  0  0  0  0  0  0  0
   -4.7229   -2.5403   -2.2323 C   0  0  0  0  0  0  0  0  0  0  0  0
    0.6025   -1.4752    5.1676 C   0  0  0  0  0  0  0  0  0  0  0  0
    4.0937   -5.3854    3.6102 C   0  0  0  0  0  0  0  0  0  0  0  0
   -1.5777   -5.3445    4.7739 C   0  0  0  0  0  0  0  0  0  0  0  0
   -1.7453   -8.3482   -0.9026 C   0  0  0  0  0  0  0  0  0  0  0  0
    2.8971    4.9271   -6.0866 C   0  0  0  0  0  0  0  0  0  0  0  0
    1.6800    2.8605   -6.3776 C   0  0  0  0  0  0  0  0  0  0  0  0
    2.0621    5.5475   -7.0171 C   0  0  0  0  0  0  0  0  0  0  0  0
    0.8465    3.4835   -7.3076 C   0  0  0  0  0  0  0  0  0  0  0  0
    1.0372    4.8264   -7.6265 C   0  0  0  0  0  0  0  0  0  0  0  0
    4.8711    1.6197    0.0554 H   0  0  0  0  0  0  0  0  0  0  0  0
    6.7353    3.1212   -1.1128 H   0  0  0  0  0  0  0  0  0  0  0  0
    6.5334    4.1861    0.2617 H   0  0  0  0  0  0  0  0  0  0  0  0
    7.1231    2.2111    1.7872 H   0  0  0  0  0  0  0  0  0  0  0  0
   -5.8284    2.4913    1.1455 H   0  0  0  0  0  0  0  0  0  0  0  0
   -2.9813    1.8991    0.1839 H   0  0  0  0  0  0  0  0  0  0  0  0
   -4.3254    0.7664    0.2439 H   0  0  0  0  0  0  0  0  0  0  0  0
    3.3024    4.3986   -3.1666 H   0  0  0  0  0  0  0  0  0  0  0  0
    2.7169    4.1268    3.2518 H   0  0  0  0  0  0  0  0  0  0  0  0
    1.0852   -1.1631    0.0863 H   0  0  0  0  0  0  0  0  0  0  0  0
    3.5530    4.0240   -0.8652 H   0  0  0  0  0  0  0  0  0  0  0  0
   -2.9511    2.0718    2.6333 H   0  0  0  0  0  0  0  0  0  0  0  0
   -4.4038    1.0805    2.7794 H   0  0  0  0  0  0  0  0  0  0  0  0
   -0.4889    3.0777   -0.6442 H   0  0  0  0  0  0  0  0  0  0  0  0
    1.8054   -0.9451   -2.8919 H   0  0  0  0  0  0  0  0  0  0  0  0
    2.9025   -0.5012   -1.5984 H   0  0  0  0  0  0  0  0  0  0  0  0
    2.4858    2.6611    0.6677 H   0  0  0  0  0  0  0  0  0  0  0  0
   -2.0943   -0.0047    3.1860 H   0  0  0  0  0  0  0  0  0  0  0  0
   -1.8200    0.1009    1.4572 H   0  0  0  0  0  0  0  0  0  0  0  0
   -4.3126    3.5812   -1.2854 H   0  0  0  0  0  0  0  0  0  0  0  0
   -5.9361    4.0309   -0.7839 H   0  0  0  0  0  0  0  0  0  0  0  0
    4.6431    3.1742   -4.9368 H   0  0  0  0  0  0  0  0  0  0  0  0
    3.5386    1.8208   -4.8495 H   0  0  0  0  0  0  0  0  0  0  0  0
    8.7885    3.9299    1.1414 H   0  0  0  0  0  0  0  0  0  0  0  0
    9.2023    3.0064   -0.3146 H   0  0  0  0  0  0  0  0  0  0  0  0
    9.5425    2.3378    1.2914 H   0  0  0  0  0  0  0  0  0  0  0  0
    6.5921    0.3033    0.3104 H   0  0  0  0  0  0  0  0  0  0  0  0
    7.7903    0.8486   -0.8762 H   0  0  0  0  0  0  0  0  0  0  0  0
    8.3042    0.2770    0.7194 H   0  0  0  0  0  0  0  0  0  0  0  0
   -2.3245   -2.7303   -3.6532 H   0  0  0  0  0  0  0  0  0  0  0  0
    0.8133    4.4793    1.4510 H   0  0  0  0  0  0  0  0  0  0  0  0
    0.2099    2.9047    1.9343 H   0  0  0  0  0  0  0  0  0  0  0  0
    2.7966   -0.3808    4.4017 H   0  0  0  0  0  0  0  0  0  0  0  0
    1.5825    1.9493   -3.2347 H   0  0  0  0  0  0  0  0  0  0  0  0
   -1.0554    2.8465   -3.6655 H   0  0  0  0  0  0  0  0  0  0  0  0
   -2.2390    2.7611   -2.3770 H   0  0  0  0  0  0  0  0  0  0  0  0
    3.3158   -2.8027   -2.4115 H   0  0  0  0  0  0  0  0  0  0  0  0
    1.6780   -3.2965   -1.9587 H   0  0  0  0  0  0  0  0  0  0  0  0
   -0.4631    0.8138   -2.4446 H   0  0  0  0  0  0  0  0  0  0  0  0
   -0.7619   -2.0822   -0.5539 H   0  0  0  0  0  0  0  0  0  0  0  0
    4.2157   -3.5805    1.7049 H   0  0  0  0  0  0  0  0  0  0  0  0
   -5.0730    4.8957    1.2742 H   0  0  0  0  0  0  0  0  0  0  0  0
   -3.3998    4.3551    1.0514 H   0  0  0  0  0  0  0  0  0  0  0  0
   -4.3203    3.8702    2.4886 H   0  0  0  0  0  0  0  0  0  0  0  0
   -3.9399   -1.5029    2.9926 H   0  0  0  0  0  0  0  0  0  0  0  0
   -4.0827   -1.2741    1.2491 H   0  0  0  0  0  0  0  0  0  0  0  0
   -0.0633   -6.2332   -1.5167 H   0  0  0  0  0  0  0  0  0  0  0  0
    2.4723    0.9412    1.8623 H   0  0  0  0  0  0  0  0  0  0  0  0
   -0.7659   -4.4337    2.3208 H   0  0  0  0  0  0  0  0  0  0  0  0
   -3.5745   -0.7712   -2.6956 H   0  0  0  0  0  0  0  0  0  0  0  0
   -3.3198   -1.3821   -1.0705 H   0  0  0  0  0  0  0  0  0  0  0  0
    0.2814   -1.3688    3.0222 H   0  0  0  0  0  0  0  0  0  0  0  0
    0.1246    0.1545    3.8718 H   0  0  0  0  0  0  0  0  0  0  0  0
   -2.1751   -3.6316   -0.8120 H   0  0  0  0  0  0  0  0  0  0  0  0
    3.0845   -5.9912    1.8104 H   0  0  0  0  0  0  0  0  0  0  0  0
    1.7901   -3.0631    3.2790 H   0  0  0  0  0  0  0  0  0  0  0  0
    3.7406   -2.2717   -0.0255 H   0  0  0  0  0  0  0  0  0  0  0  0
   -0.0639    3.7515    4.3017 H   0  0  0  0  0  0  0  0  0  0  0  0
   -1.0549    4.5725    3.1026 H   0  0  0  0  0  0  0  0  0  0  0  0
   -1.8052   -7.3511   -2.7862 H   0  0  0  0  0  0  0  0  0  0  0  0
   -5.0572    1.3024   -1.8310 H   0  0  0  0  0  0  0  0  0  0  0  0
   -6.1407    2.4647   -2.5935 H   0  0  0  0  0  0  0  0  0  0  0  0
   -6.6595    1.6174   -1.1264 H   0  0  0  0  0  0  0  0  0  0  0  0
   -0.6583    5.2198   -3.2999 H   0  0  0  0  0  0  0  0  0  0  0  0
   -2.3856    4.9219   -3.4264 H   0  0  0  0  0  0  0  0  0  0  0  0
   -3.0901   -6.1141    3.4372 H   0  0  0  0  0  0  0  0  0  0  0  0
   -1.4741   -6.7403    3.1328 H   0  0  0  0  0  0  0  0  0  0  0  0
   -0.1869   -5.0859    0.3616 H   0  0  0  0  0  0  0  0  0  0  0  0
   -3.5129   -3.6922    3.0347 H   0  0  0  0  0  0  0  0  0  0  0  0
   -4.6334   -3.4546   -1.6366 H   0  0  0  0  0  0  0  0  0  0  0  0
   -4.8914   -2.8337   -3.2741 H   0  0  0  0  0  0  0  0  0  0  0  0
    0.9322   -0.8141    5.9769 H   0  0  0  0  0  0  0  0  0  0  0  0
    1.2291   -2.3709    5.2006 H   0  0  0  0  0  0  0  0  0  0  0  0
    4.0092   -4.6367    4.4055 H   0  0  0  0  0  0  0  0  0  0  0  0
    5.0954   -5.3253    3.1739 H   0  0  0  0  0  0  0  0  0  0  0  0
    3.9837   -6.3645    4.0890 H   0  0  0  0  0  0  0  0  0  0  0  0
   -2.1583   -4.4688    5.0803 H   0  0  0  0  0  0  0  0  0  0  0  0
   -0.5246   -5.0480    4.7489 H   0  0  0  0  0  0  0  0  0  0  0  0
   -2.3536   -9.1827   -1.2687 H   0  0  0  0  0  0  0  0  0  0  0  0
   -2.0250   -8.2007    0.1452 H   0  0  0  0  0  0  0  0  0  0  0  0
   -0.6921   -8.6412   -0.9477 H   0  0  0  0  0  0  0  0  0  0  0  0
    3.6916    5.5057   -5.6207 H   0  0  0  0  0  0  0  0  0  0  0  0
    1.5160    1.8111   -6.1422 H   0  0  0  0  0  0  0  0  0  0  0  0
   -0.0077    6.0944    4.5864 H   0  0  0  0  0  0  0  0  0  0  0  0
    0.4804    6.3593    3.0514 H   0  0  0  0  0  0  0  0  0  0  0  0
   -2.0350    6.3518   -1.6644 H   0  0  0  0  0  0  0  0  0  0  0  0
   -0.8220    5.4951   -1.0314 H   0  0  0  0  0  0  0  0  0  0  0  0
    1.7120   -6.1575    3.6450 H   0  0  0  0  0  0  0  0  0  0  0  0
   -3.5962   -6.4701   -0.7783 H   0  0  0  0  0  0  0  0  0  0  0  0
    2.2124    6.5945   -7.2676 H   0  0  0  0  0  0  0  0  0  0  0  0
    0.0498    2.9193   -7.7856 H   0  0  0  0  0  0  0  0  0  0  0  0
   -6.0434   -0.9871   -2.3591 H   0  0  0  0  0  0  0  0  0  0  0  0
   -6.7068   -2.3703   -1.8200 H   0  0  0  0  0  0  0  0  0  0  0  0
   -0.8491   -2.3277    6.3087 H   0  0  0  0  0  0  0  0  0  0  0  0
   -1.3509   -1.0196    5.4919 H   0  0  0  0  0  0  0  0  0  0  0  0
    0.3894    5.3101   -8.3528 H   0  0  0  0  0  0  0  0  0  0  0  0
   -2.7342   -6.6394    5.8552 H   0  0  0  0  0  0  0  0  0  0  0  0
   -1.2648   -7.2370    5.4962 H   0  0  0  0  0  0  0  0  0  0  0  0
  1 38  2  0
  2 42  2  0
  3 52  2  0
  4 53  2  0
  5 55  2  0
 65  6  1  0
  6173  1  0
  7 60  2  0
 70  8  1  0
  8174  1  0
  9 64  2  0
 10 68  2  0
 11 69  2  0
 12 73  2  0
 13 75  2  0
 14 30  1  0
 14 42  1  0
 14 96  1  0
 15 36  1  0
 15 38  1  0
 15102  1  0
 16 35  1  0
 16 53  1  0
 16119  1  0
 17 40  1  0
 17 52  1  0
 17124  1  0
 37 18  1  0
 18 60  1  0
 18125  1  0
 19 50  1  0
 19 55  1  0
 19133  1  0
 49 20  1  0
 20 69  1  0
 20139  1  0
 21 56  1  0
 21 64  1  0
 21141  1  0
 22 54  1  0
 22 68  1  0
 22142  1  0
 59 23  1  0
 23 75  1  0
 23153  1  0
 61 24  1  0
 24 73  1  0
 24154  1  0
 25 66  1  0
 25169  1  0
 25170  1  0
 26 72  1  0
 26171  1  0
 26172  1  0
 27 76  1  0
 27177  1  0
 27178  1  0
 28 77  1  0
 28179  1  0
 28180  1  0
 29 79  1  0
 29182  1  0
 29183  1  0
 30 31  1  0
 30 38  1  0
 30 86  1  1
 31 32  1  0
 31 87  1  0
 31 88  1  0
 32 46  1  0
 32 47  1  0
 32 89  1  0
 33 34  1  0
 33 44  1  0
 33 57  1  0
 33 90  1  0
 34 39  1  0
 34 91  1  0
 34 92  1  0
 35 42  1  0
 35 45  1  0
 35 93  1  6
 36 48  1  0
 36 55  1  0
 36 94  1  1
 37 41  1  0
 37 52  1  0
 37 95  1  1
 39 43  1  0
 39 97  1  0
 39 98  1  0
 40 51  1  0
 40 53  1  0
 40 99  1  1
 41 54  1  0
 41100  1  0
 41101  1  0
 43 58  1  0
 43103  1  0
 43104  1  0
 44 71  1  0
 44105  1  0
 44106  1  0
 45 67  1  0
 45107  1  0
 45108  1  0
 46109  1  0
 46110  1  0
 46111  1  0
 47112  1  0
 47113  1  0
 47114  1  0
 48 66  1  0
 48116  1  0
 48117  1  0
 49 60  1  0
 49 62  1  0
 49115  1  6
 50 63  1  0
 50 64  1  0
 50118  1  1
 51 72  1  0
 51120  1  0
 51121  1  0
 54122  1  0
 54123  1  0
 56 65  1  0
 56 68  1  0
 56126  1  6
 57127  1  0
 57128  1  0
 57129  1  0
 58 73  1  0
 58130  1  0
 58131  1  0
 59 69  1  0
 59 70  1  0
 59132  1  6
 61 74  1  0
 61 75  1  0
 61134  1  6
 62 76  1  0
 62135  1  0
 62136  1  0
 63 77  1  0
 63137  1  0
 63138  1  0
 65 78  1  0
 65140  1  6
 66143  1  0
 66144  1  0
 67 81  2  0
 67 82  1  0
 70 80  1  0
 70145  1  6
 71146  1  0
 71147  1  0
 71148  1  0
 72149  1  0
 72150  1  0
 74 79  1  0
 74151  1  0
 74152  1  0
 76155  1  0
 76156  1  0
 77157  1  0
 77158  1  0
 78159  1  0
 78160  1  0
 78161  1  0
 79162  1  0
 79163  1  0
 80164  1  0
 80165  1  0
 80166  1  0
 81 83  1  0
 81167  1  0
 82 84  2  0
 82168  1  0
 83 85  2  0
 83175  1  0
 84 85  1  0
 84176  1  0
 85181  1  0
M  END
>  <PUBCHEM_COMPOUND_CID>  (1) 
49800004

>  <PUBCHEM_COMPOUND_CANONICALIZED>  (1) 
1

>  <PUBCHEM_CACTVS_COMPLEXITY>  (1) 
2150

>  <PUBCHEM_CACTVS_HBOND_ACCEPTOR>  (1) 
18

>  <PUBCHEM_CACTVS_HBOND_DONOR>  (1) 
18

>  <PUBCHEM_CACTVS_ROTATABLE_BOND>  (1) 
29

>  <PUBCHEM_CACTVS_SUBSKEYS>  (1) 
AAADcfB//AAAAAAAAAAAAAAAAAAAAAAAAAAwAAAAAAAAAAABAAAAHgAQCAAADTzhmAYyAILAAgCIAiFSEAACAAAgAAAIiIGIAIgKcDaA0TGUYAAitgCYiAcciMCOAAAAAAAAAAAAAAAAAAAAAAAAAAAAAA==

>  <PUBCHEM_IUPAC_OPENEYE_NAME>  (1) 
N-[(1S)-3-amino-1-[[(1S,2R)-1-[[(1S)-3-amino-1-[[(3S,6S,9S,12S,15R,18R,21S)-6,9,18-tris(2-aminoethyl)-15-benzyl-3-[(1R)-1-hydroxyethyl]-12-isobutyl-2,5,8,11,14,17,20-heptaoxo-1,4,7,10,13,16,19-heptazacyclotricos-21-yl]carbamoyl]propyl]carbamoyl]-2-hydroxy-propyl]carbamoyl]propyl]-6-methyl-octanamide

>  <PUBCHEM_IUPAC_CAS_NAME>  (1) 
N-[(2S)-4-amino-1-[[(2S,3R)-1-[[(2S)-4-amino-1-oxo-1-[[(3S,6S,9S,12S,15R,18R,21S)-6,9,18-tris(2-aminoethyl)-3-[(1R)-1-hydroxyethyl]-12-(2-methylpropyl)-2,5,8,11,14,17,20-heptaoxo-15-(phenylmethyl)-1,4,7,10,13,16,19-heptazacyclotricos-21-yl]amino]butan-2-yl]amino]-3-hydroxy-1-oxobutan-2-yl]amino]-1-oxobutan-2-yl]-6-methyloctanamide

>  <PUBCHEM_IUPAC_NAME_MARKUP>  (1) 
<I>N</I>-[(2<I>S</I>)-4-amino-1-[[(2<I>S</I>,3<I>R</I>)-1-[[(2<I>S</I>)-4-amino-1-oxo-1-[[(3<I>S</I>,6<I>S</I>,9<I>S</I>,12<I>S</I>,15<I>R</I>,18<I>R</I>,21<I>S</I>)-6,9,18-tris(2-aminoethyl)-15-benzyl-3-[(1<I>R</I>)-1-hydroxyethyl]-12-(2-methylpropyl)-2,5,8,11,14,17,20-heptaoxo-1,4,7,10,13,16,19-heptazacyclotricos-21-yl]amino]butan-2-yl]amino]-3-hydroxy-1-oxobutan-2-yl]amino]-1-oxobutan-2-yl]-6-methyloctanamide

>  <PUBCHEM_IUPAC_NAME>  (1) 
N-[(2S)-4-amino-1-[[(2S,3R)-1-[[(2S)-4-amino-1-oxo-1-[[(3S,6S,9S,12S,15R,18R,21S)-6,9,18-tris(2-aminoethyl)-15-benzyl-3-[(1R)-1-hydroxyethyl]-12-(2-methylpropyl)-2,5,8,11,14,17,20-heptaoxo-1,4,7,10,13,16,19-heptazacyclotricos-21-yl]amino]butan-2-yl]amino]-3-hydroxy-1-oxobutan-2-yl]amino]-1-oxobutan-2-yl]-6-methyloctanamide

>  <PUBCHEM_IUPAC_SYSTEMATIC_NAME>  (1) 
N-[(2S)-4-azanyl-1-[[(2S,3R)-1-[[(2S)-4-azanyl-1-oxidanylidene-1-[[(3S,6S,9S,12S,15R,18R,21S)-6,9,18-tris(2-azanylethyl)-12-(2-methylpropyl)-3-[(1R)-1-oxidanylethyl]-2,5,8,11,14,17,20-heptakis(oxidanylidene)-15-(phenylmethyl)-1,4,7,10,13,16,19-heptazacyclotricos-21-yl]amino]butan-2-yl]amino]-3-oxidanyl-1-oxidanylidene-butan-2-yl]amino]-1-oxidanylidene-butan-2-yl]-6-methyl-octanamide

>  <PUBCHEM_IUPAC_TRADITIONAL_NAME>  (1) 
N-[(1S)-3-amino-1-[[(1S,2R)-1-[[(1S)-3-amino-1-[[(3S,6S,9S,12S,15R,18R,21S)-6,9,18-tris(2-aminoethyl)-15-benzyl-3-[(1R)-1-hydroxyethyl]-12-isobutyl-2,5,8,11,14,17,20-heptaketo-1,4,7,10,13,16,19-heptazacyclotricos-21-yl]carbamoyl]propyl]carbamoyl]-2-hydroxy-propyl]carbamoyl]propyl]-6-methyl-caprylamide

>  <PUBCHEM_IUPAC_INCHI>  (1) 
InChI=1S/C56H98N16O13/c1-7-32(4)13-11-12-16-44(75)63-36(17-23-57)51(80)72-46(34(6)74)56(85)68-39(20-26-60)48(77)67-41-22-28-62-55(84)45(33(5)73)71-52(81)40(21-27-61)65-47(76)37(18-24-58)66-53(82)42(29-31(2)3)69-54(83)43(30-35-14-9-8-10-15-35)70-49(78)38(19-25-59)64-50(41)79/h8-10,14-15,31-34,36-43,45-46,73-74H,7,11-13,16-30,57-61H2,1-6H3,(H,62,84)(H,63,75)(H,64,79)(H,65,76)(H,66,82)(H,67,77)(H,68,85)(H,69,83)(H,70,78)(H,71,81)(H,72,80)/t32?,33-,34-,36+,37+,38-,39+,40+,41+,42+,43-,45+,46+/m1/s1

>  <PUBCHEM_IUPAC_INCHIKEY>  (1) 
WQVJHHACXVLGBL-BPJDFBQWSA-N

>  <PUBCHEM_XLOGP3_AA>  (1) 
-2.5

>  <PUBCHEM_EXACT_MASS>  (1) 
1202.74992724

>  <PUBCHEM_MOLECULAR_FORMULA>  (1) 
C56H98N16O13

>  <PUBCHEM_MOLECULAR_WEIGHT>  (1) 
1203.5

>  <PUBCHEM_SMILES>  (1) 
CCC(C)CCCCC(=O)N[C@@H](CCN)C(=O)N[C@@H]([C@@H](C)O)C(=O)N[C@@H](CCN)C(=O)N[C@H]1CCNC(=O)[C@@H](NC(=O)[C@@H](NC(=O)[C@@H](NC(=O)[C@@H](NC(=O)[C@H](NC(=O)[C@H](NC1=O)CCN)CC2=CC=CC=C2)CC(C)C)CCN)CCN)[C@@H](C)O

>  <PUBCHEM_CONNECTIVITY_SMILES>  (1) 
CCC(C)CCCCC(=O)NC(CCN)C(=O)NC(C(C)O)C(=O)NC(CCN)C(=O)NC1CCNC(=O)C(NC(=O)C(NC(=O)C(NC(=O)C(NC(=O)C(NC(=O)C(NC1=O)CCN)CC2=CC=CC=C2)CC(C)C)CCN)CCN)C(C)O

>  <PUBCHEM_CACTVS_TPSA>  (1) 
491

>  <PUBCHEM_MONOISOTOPIC_WEIGHT>  (1) 
1202.74992724

>  <PUBCHEM_TOTAL_CHARGE>  (1) 
0

>  <PUBCHEM_HEAVY_ATOM_COUNT>  (1) 
85

>  <PUBCHEM_ATOM_DEF_STEREO_COUNT>  (1) 
12

>  <PUBCHEM_ATOM_UDEF_STEREO_COUNT>  (1) 
1

>  <PUBCHEM_BOND_DEF_STEREO_COUNT>  (1) 
0

>  <PUBCHEM_BOND_UDEF_STEREO_COUNT>  (1) 
0

>  <PUBCHEM_ISOTOPIC_ATOM_COUNT>  (1) 
0

>  <PUBCHEM_COMPONENT_COUNT>  (1) 
1

>  <PUBCHEM_CACTVS_TAUTO_COUNT>  (1) 
-1

>  <PUBCHEM_COORDINATE_TYPE>  (1) 
1
5
255

>  <PUBCHEM_BONDANNOTATIONS>  (1) 
37  18  6
49  20  5
59  23  6
61  24  5
30  31  5
33  57  3
35  45  6
36  48  5
40  51  6
50  63  5
56  126  6
65  6  6
67  81  8
67  82  8
70  8  5
81  83  8
82  84  8
83  85  8
84  85  8

>  <RDKit_3D_force_field>  (1) 
MMFF94s

>  <RDKit_3D_energy>  (1) 
84.344489

$$$$
