pmb
 OpenBabel05152603483D

188189  0  0  1  0  0  0  0  0999 V2000
   -6.7852   -3.0469   11.1601 O   0  0  0  0  0  0  0  0  0  0  0  0
   -4.3010   -2.5807   15.7029 O   0  0  0  0  0  0  0  0  0  0  0  0
   -5.4895    2.8140   13.7039 O   0  0  0  0  0  0  0  0  0  0  0  0
   -6.2738    1.0933   18.0936 O   0  0  0  0  0  0  0  0  0  0  0  0
   -7.2798    1.8008    9.8696 O   0  0  0  0  0  0  0  0  0  0  0  0
    0.5638    3.7379   10.4266 O   0  0  0  0  0  0  0  0  0  0  0  0
   -1.6415    1.8555   17.4570 O   0  0  0  0  0  0  0  0  0  0  0  0
   -4.3969    8.1324   14.4418 O   0  0  0  0  0  0  0  0  0  0  0  0
   -2.9616    3.5033   11.7376 O   0  0  0  0  0  0  0  0  0  0  0  0
   -1.7640   -0.1314    9.1946 O   0  0  0  0  0  0  0  0  0  0  0  0
   -2.7707    6.4066   18.0062 O   0  0  0  0  0  0  0  0  0  0  0  0
   -5.3357    6.9387   20.0810 O   0  0  0  0  0  0  0  0  0  0  0  0
   -6.4672    5.0205   14.9480 O   0  0  0  0  0  0  0  0  0  0  0  0
   -6.2880   -2.7547   14.6034 N   0  0  0  0  0  0  0  0  0  0  0  0
   -6.2351   -1.0066   11.8747 N   0  0  0  0  0  0  0  0  0  0  0  0
   -6.1003   -1.0770   17.7215 N   0  0  0  0  0  0  0  0  0  0  0  0
   -5.6198    1.8697   15.6537 N   0  0  0  0  0  0  0  0  0  0  0  0
   -2.8101    1.5875   15.6431 N   0  0  0  0  0  0  0  0  0  0  0  0
   -5.1459    1.6644   10.5497 N   0  0  0  0  0  0  0  0  0  0  0  0
   -1.9028    4.6445   17.0634 N   0  0  0  0  0  0  0  0  0  0  0  0
   -2.2561    2.8137    9.7233 N   0  0  0  0  0  0  0  0  0  0  0  0
   -2.2103    0.0177   11.3347 N   0  0  0  0  0  0  0  0  0  0  0  0
   -4.3668    5.4746   15.2008 N   0  0  0  0  0  0  0  0  0  0  0  0
   -5.5954    5.9093   18.1525 N   0  0  0  0  0  0  0  0  0  0  0  0
  -10.6231   -0.3373   11.3554 N   0  3  0  0  0  0  0  0  0  0  0  0
   -9.2906    0.5944   16.3869 N   0  3  0  0  0  0  0  0  0  0  0  0
    2.3043    4.9271   15.9611 N   0  3  0  0  0  0  0  0  0  0  0  0
   -6.2925    6.5065   10.8545 N   0  3  0  0  0  0  0  0  0  0  0  0
   -9.4307    3.2206   17.3199 N   0  3  0  0  0  0  0  0  0  0  0  0
   -5.8083   -3.1348   13.2995 C   0  0  1  0  0  0  0  0  0  0  0  0
   -6.2312   -4.6550   13.1973 C   0  0  0  0  0  0  0  0  0  0  0  0
   -5.5494   -5.6503   14.1792 C   0  0  0  0  0  0  0  0  0  0  0  0
   -2.9603    0.3374   21.5528 C   0  0  2  0  0  0  0  0  0  0  0  0
   -2.8826    1.7732   20.9518 C   0  0  0  0  0  0  0  0  0  0  0  0
   -6.2143   -2.3785   17.1055 C   0  0  1  0  0  0  0  0  0  0  0  0
   -6.7552   -0.3525   10.6661 C   0  0  1  0  0  0  0  0  0  0  0  0
   -3.4593    1.8461   14.4031 C   0  0  1  0  0  0  0  0  0  0  0  0
   -6.3218   -2.3668   12.1072 C   0  0  0  0  0  0  0  0  0  0  0  0
   -4.2399    2.4602   20.9093 C   0  0  0  0  0  0  0  0  0  0  0  0
   -6.0911    0.5334   15.8053 C   0  0  2  0  0  0  0  0  0  0  0  0
   -3.4182    0.6049   13.4461 C   0  0  0  0  0  0  0  0  0  0  0  0
   -5.5541   -2.5739   15.7622 C   0  0  0  0  0  0  0  0  0  0  0  0
   -4.0058    3.8654   20.3618 C   0  0  0  0  0  0  0  0  0  0  0  0
   -1.5186   -0.2536   21.6741 C   0  0  0  0  0  0  0  0  0  0  0  0
   -5.6586   -3.3965   18.1749 C   0  0  0  0  0  0  0  0  0  0  0  0
   -6.1623   -7.0732   14.0062 C   0  0  0  0  0  0  0  0  0  0  0  0
   -4.0035   -5.6921   13.9762 C   0  0  0  0  0  0  0  0  0  0  0  0
   -8.3132   -0.6078   10.4677 C   0  0  0  0  0  0  0  0  0  0  0  0
   -1.4165    3.7411   16.0632 C   0  0  2  0  0  0  0  0  0  0  0  0
   -4.7127    3.0133   10.1794 C   0  0  1  0  0  0  0  0  0  0  0  0
   -7.3262    0.1782   14.9037 C   0  0  0  0  0  0  0  0  0  0  0  0
   -4.8614    2.2590   14.6230 C   0  0  0  0  0  0  0  0  0  0  0  0
   -6.1990    0.1874   17.2296 C   0  0  0  0  0  0  0  0  0  0  0  0
   -2.0643    0.4335   12.7035 C   0  0  0  0  0  0  0  0  0  0  0  0
   -6.3983    1.0928   10.4084 C   0  0  0  0  0  0  0  0  0  0  0  0
   -1.1131    1.9834   10.0157 C   0  0  1  0  0  0  0  0  0  0  0  0
   -3.8833   -0.6122   20.7066 C   0  0  0  0  0  0  0  0  0  0  0  0
   -5.3900    4.5980   20.3022 C   0  0  0  0  0  0  0  0  0  0  0  0
   -3.2991    6.3050   15.6922 C   0  0  2  0  0  0  0  0  0  0  0  0
   -1.9718    2.3837   16.3726 C   0  0  0  0  0  0  0  0  0  0  0  0
   -5.8702    4.8485   17.2340 C   0  0  1  0  0  0  0  0  0  0  0  0
    0.1493    3.6931   16.1235 C   0  0  0  0  0  0  0  0  0  0  0  0
   -5.6097    4.1665   10.7708 C   0  0  0  0  0  0  0  0  0  0  0  0
   -3.2664    3.1513   10.5783 C   0  0  0  0  0  0  0  0  0  0  0  0
   -0.0087    2.5587   10.9797 C   0  0  1  0  0  0  0  0  0  0  0  0
   -9.2069   -0.0381   11.5924 C   0  0  0  0  0  0  0  0  0  0  0  0
   -6.3116   -4.7299   18.1943 C   0  0  0  0  0  0  0  0  0  0  0  0
   -1.6750    0.5973   10.2123 C   0  0  0  0  0  0  0  0  0  0  0  0
   -2.6628    5.7722   16.9336 C   0  0  0  0  0  0  0  0  0  0  0  0
   -3.9012    7.7614   15.7271 C   0  0  1  0  0  0  0  0  0  0  0  0
   -0.5433    0.5740   22.5671 C   0  0  0  0  0  0  0  0  0  0  0  0
   -8.7049    0.8511   15.0565 C   0  0  0  0  0  0  0  0  0  0  0  0
   -5.5265    5.8569   19.4819 C   0  0  0  0  0  0  0  0  0  0  0  0
   -7.3276    4.4054   17.5521 C   0  0  0  0  0  0  0  0  0  0  0  0
   -5.5602    5.1446   15.8025 C   0  0  0  0  0  0  0  0  0  0  0  0
    0.8451    5.0428   15.8536 C   0  0  0  0  0  0  0  0  0  0  0  0
   -5.3698    5.5720   10.1926 C   0  0  0  0  0  0  0  0  0  0  0  0
    1.1496    1.5681   11.2331 C   0  0  0  0  0  0  0  0  0  0  0  0
   -8.2070    3.6316   16.6295 C   0  0  0  0  0  0  0  0  0  0  0  0
   -2.9382    8.8794   16.1630 C   0  0  0  0  0  0  0  0  0  0  0  0
   -5.6054   -5.8604   17.7328 C   0  0  0  0  0  0  0  0  0  0  0  0
   -7.6020   -4.9195   18.7510 C   0  0  0  0  0  0  0  0  0  0  0  0
   -6.1658   -7.1423   17.7935 C   0  0  0  0  0  0  0  0  0  0  0  0
   -8.1549   -6.2114   18.8451 C   0  0  0  0  0  0  0  0  0  0  0  0
   -7.4393   -7.3231   18.3587 C   0  0  0  0  0  0  0  0  0  0  0  0
   -4.7239   -3.0104   13.2315 H   0  0  0  0  0  0  0  0  0  0  0  0
   -7.3232   -4.7002   13.3512 H   0  0  0  0  0  0  0  0  0  0  0  0
   -6.0399   -5.0479   12.1943 H   0  0  0  0  0  0  0  0  0  0  0  0
   -5.7772   -5.3138   15.1854 H   0  0  0  0  0  0  0  0  0  0  0  0
   -3.3864    0.4131   22.5654 H   0  0  0  0  0  0  0  0  0  0  0  0
   -2.4262    1.7294   19.9549 H   0  0  0  0  0  0  0  0  0  0  0  0
   -2.2705    2.4363   21.5692 H   0  0  0  0  0  0  0  0  0  0  0  0
   -7.2981   -2.5111   16.9806 H   0  0  0  0  0  0  0  0  0  0  0  0
   -6.2496   -0.8581    9.8380 H   0  0  0  0  0  0  0  0  0  0  0  0
   -2.9801    2.6922   13.9390 H   0  0  0  0  0  0  0  0  0  0  0  0
   -7.2569   -2.7230   14.6957 H   0  0  0  0  0  0  0  0  0  0  0  0
   -4.9144    1.9281   20.2239 H   0  0  0  0  0  0  0  0  0  0  0  0
   -4.6781    2.4880   21.9137 H   0  0  0  0  0  0  0  0  0  0  0  0
   -5.2594   -0.0855   15.4814 H   0  0  0  0  0  0  0  0  0  0  0  0
   -4.2010    0.7311   12.7021 H   0  0  0  0  0  0  0  0  0  0  0  0
   -3.6389   -0.3209   13.9860 H   0  0  0  0  0  0  0  0  0  0  0  0
   -5.7971   -0.4604   12.5471 H   0  0  0  0  0  0  0  0  0  0  0  0
   -3.6123    3.7598   19.3507 H   0  0  0  0  0  0  0  0  0  0  0  0
   -3.2984    4.4517   20.9441 H   0  0  0  0  0  0  0  0  0  0  0  0
   -1.5923   -1.2639   22.0937 H   0  0  0  0  0  0  0  0  0  0  0  0
   -1.0831   -0.3591   20.6736 H   0  0  0  0  0  0  0  0  0  0  0  0
   -5.7758   -3.0304   19.1971 H   0  0  0  0  0  0  0  0  0  0  0  0
   -4.5693   -3.4860   18.0811 H   0  0  0  0  0  0  0  0  0  0  0  0
   -5.6933   -7.7874   14.6819 H   0  0  0  0  0  0  0  0  0  0  0  0
   -7.2348   -7.0722   14.2121 H   0  0  0  0  0  0  0  0  0  0  0  0
   -6.0109   -7.4198   12.9838 H   0  0  0  0  0  0  0  0  0  0  0  0
   -3.5382   -6.4134   14.6488 H   0  0  0  0  0  0  0  0  0  0  0  0
   -3.7826   -5.9737   12.9442 H   0  0  0  0  0  0  0  0  0  0  0  0
   -3.5288   -4.7307   14.1750 H   0  0  0  0  0  0  0  0  0  0  0  0
   -1.7070    4.0704   15.0671 H   0  0  0  0  0  0  0  0  0  0  0  0
   -8.6453   -0.2025    9.5062 H   0  0  0  0  0  0  0  0  0  0  0  0
   -8.5451   -1.6708   10.4154 H   0  0  0  0  0  0  0  0  0  0  0  0
   -4.7631    3.0459    9.0828 H   0  0  0  0  0  0  0  0  0  0  0  0
   -5.9838   -1.0912   18.6807 H   0  0  0  0  0  0  0  0  0  0  0  0
   -7.6246   -0.8347   15.1225 H   0  0  0  0  0  0  0  0  0  0  0  0
   -6.9882    0.2844   13.8653 H   0  0  0  0  0  0  0  0  0  0  0  0
   -1.5410    1.3641   12.7855 H   0  0  0  0  0  0  0  0  0  0  0  0
   -1.4484   -0.3243   13.1956 H   0  0  0  0  0  0  0  0  0  0  0  0
   -5.9311    2.5422   16.2759 H   0  0  0  0  0  0  0  0  0  0  0  0
   -3.0090    0.7190   16.0223 H   0  0  0  0  0  0  0  0  0  0  0  0
   -0.6087    1.9527    9.0397 H   0  0  0  0  0  0  0  0  0  0  0  0
   -3.8942   -1.6234   21.1291 H   0  0  0  0  0  0  0  0  0  0  0  0
   -4.9265   -0.2794   20.6779 H   0  0  0  0  0  0  0  0  0  0  0  0
   -3.5138   -0.6568   19.6767 H   0  0  0  0  0  0  0  0  0  0  0  0
   -6.0579    3.8227   19.9041 H   0  0  0  0  0  0  0  0  0  0  0  0
   -5.7982    4.7143   21.2894 H   0  0  0  0  0  0  0  0  0  0  0  0
   -2.5269    6.3098   14.9135 H   0  0  0  0  0  0  0  0  0  0  0  0
   -4.4518    1.0727   10.8675 H   0  0  0  0  0  0  0  0  0  0  0  0
   -5.1832    4.0361   17.4578 H   0  0  0  0  0  0  0  0  0  0  0  0
    0.4729    3.3822   17.1226 H   0  0  0  0  0  0  0  0  0  0  0  0
    0.5176    2.9698   15.3874 H   0  0  0  0  0  0  0  0  0  0  0  0
   -6.6731    3.9704   10.6042 H   0  0  0  0  0  0  0  0  0  0  0  0
   -5.4289    4.2594   11.8401 H   0  0  0  0  0  0  0  0  0  0  0  0
   -1.6164    4.4483   17.9677 H   0  0  0  0  0  0  0  0  0  0  0  0
   -0.3896    2.8913   11.9439 H   0  0  0  0  0  0  0  0  0  0  0  0
   -2.3956    3.0123    8.7840 H   0  0  0  0  0  0  0  0  0  0  0  0
   -2.7343   -0.7893   11.1702 H   0  0  0  0  0  0  0  0  0  0  0  0
   -9.0959    1.0449   11.7294 H   0  0  0  0  0  0  0  0  0  0  0  0
   -8.9121   -0.5656   12.4908 H   0  0  0  0  0  0  0  0  0  0  0  0
   -4.7605    7.8057   16.3916 H   0  0  0  0  0  0  0  0  0  0  0  0
    0.4145    0.0555   22.6566 H   0  0  0  0  0  0  0  0  0  0  0  0
   -0.9868    0.6996   23.5600 H   0  0  0  0  0  0  0  0  0  0  0  0
   -0.3337    1.5646   22.1505 H   0  0  0  0  0  0  0  0  0  0  0  0
   -9.4255    0.3398   14.4250 H   0  0  0  0  0  0  0  0  0  0  0  0
   -8.6681    1.8833   14.6831 H   0  0  0  0  0  0  0  0  0  0  0  0
   -7.9357    5.2609   17.7727 H   0  0  0  0  0  0  0  0  0  0  0  0
   -7.3004    3.6793   18.3759 H   0  0  0  0  0  0  0  0  0  0  0  0
   -4.2798    5.2430   14.2484 H   0  0  0  0  0  0  0  0  0  0  0  0
   -5.4926    6.7816   17.7873 H   0  0  0  0  0  0  0  0  0  0  0  0
    0.4861    5.7855   16.5661 H   0  0  0  0  0  0  0  0  0  0  0  0
    0.5759    5.3829   14.8537 H   0  0  0  0  0  0  0  0  0  0  0  0
   -5.5688    5.5628    9.1209 H   0  0  0  0  0  0  0  0  0  0  0  0
   -4.3321    5.8656   10.3509 H   0  0  0  0  0  0  0  0  0  0  0  0
    0.7529    0.6464   11.6589 H   0  0  0  0  0  0  0  0  0  0  0  0
    1.6511    1.3467   10.2910 H   0  0  0  0  0  0  0  0  0  0  0  0
    1.8620    2.0123   11.9283 H   0  0  0  0  0  0  0  0  0  0  0  0
   -8.4651    4.2499   15.7697 H   0  0  0  0  0  0  0  0  0  0  0  0
   -7.6823    2.7337   16.3032 H   0  0  0  0  0  0  0  0  0  0  0  0
   -2.5288    8.6437   17.1453 H   0  0  0  0  0  0  0  0  0  0  0  0
   -3.4778    9.8252   16.2116 H   0  0  0  0  0  0  0  0  0  0  0  0
   -2.1259    8.9612   15.4408 H   0  0  0  0  0  0  0  0  0  0  0  0
   -4.6698   -5.7513   17.3418 H   0  0  0  0  0  0  0  0  0  0  0  0
   -8.1308   -4.1221   19.1184 H   0  0  0  0  0  0  0  0  0  0  0  0
  -11.1853    0.0521   12.1149 H   0  0  0  0  0  0  0  0  0  0  0  0
  -10.9151    0.0776   10.4682 H   0  0  0  0  0  0  0  0  0  0  0  0
  -10.2011    1.0538   16.4527 H   0  0  0  0  0  0  0  0  0  0  0  0
   -9.4066   -0.4123   16.5195 H   0  0  0  0  0  0  0  0  0  0  0  0
   -0.1354    4.4132   10.3021 H   0  0  0  0  0  0  0  0  0  0  0  0
   -3.6655    8.1073   13.7899 H   0  0  0  0  0  0  0  0  0  0  0  0
   -5.6433   -7.9403   17.4236 H   0  0  0  0  0  0  0  0  0  0  0  0
   -9.0733   -6.3506   19.2760 H   0  0  0  0  0  0  0  0  0  0  0  0
    2.7326    5.8366   15.7770 H   0  0  0  0  0  0  0  0  0  0  0  0
    2.5531    4.6178   16.9028 H   0  0  0  0  0  0  0  0  0  0  0  0
   -6.1485    7.4478   10.4833 H   0  0  0  0  0  0  0  0  0  0  0  0
   -7.2563    6.2150   10.6793 H   0  0  0  0  0  0  0  0  0  0  0  0
   -7.8402   -8.2615   18.4141 H   0  0  0  0  0  0  0  0  0  0  0  0
  -10.0235    2.6918   16.6769 H   0  0  0  0  0  0  0  0  0  0  0  0
   -9.9338    4.0491   17.6438 H   0  0  0  0  0  0  0  0  0  0  0  0
  -10.7558   -1.3499   11.3180 H   0  0  0  0  0  0  0  0  0  0  0  0
   -8.6695    0.9638   17.1096 H   0  0  0  0  0  0  0  0  0  0  0  0
    2.6433    4.2465   15.2782 H   0  0  0  0  0  0  0  0  0  0  0  0
   -6.1140    6.5061   11.8607 H   0  0  0  0  0  0  0  0  0  0  0  0
   -9.1892    2.6338   18.1211 H   0  0  0  0  0  0  0  0  0  0  0  0
  1 38  2  0  0  0  0
  2 42  2  0  0  0  0
  3 52  2  0  0  0  0
  4 53  2  0  0  0  0
  5 55  2  0  0  0  0
  6173  1  0  0  0  0
  7 60  2  0  0  0  0
  8174  1  0  0  0  0
  9 64  2  0  0  0  0
 10 68  2  0  0  0  0
 11 69  2  0  0  0  0
 12 73  2  0  0  0  0
 13 75  2  0  0  0  0
 14 30  1  0  0  0  0
 14 42  1  0  0  0  0
 14 96  1  0  0  0  0
 15 36  1  0  0  0  0
 15 38  1  0  0  0  0
 15102  1  0  0  0  0
 16 35  1  0  0  0  0
 16 53  1  0  0  0  0
 16119  1  0  0  0  0
 17 40  1  0  0  0  0
 17 52  1  0  0  0  0
 17124  1  0  0  0  0
 18 60  1  0  0  0  0
 18125  1  0  0  0  0
 19 50  1  0  0  0  0
 19 55  1  0  0  0  0
 19133  1  0  0  0  0
 20 69  1  0  0  0  0
 20139  1  0  0  0  0
 21 56  1  0  0  0  0
 21 64  1  0  0  0  0
 21141  1  0  0  0  0
 22 54  1  0  0  0  0
 22 68  1  0  0  0  0
 22142  1  0  0  0  0
 23 75  1  0  0  0  0
 23153  1  0  0  0  0
 24 73  1  0  0  0  0
 24154  1  0  0  0  0
 25 66  1  0  0  0  0
 25169  1  0  0  0  0
 25170  1  0  0  0  0
 25184  1  0  0  0  0
 26 72  1  0  0  0  0
 26171  1  0  0  0  0
 26172  1  0  0  0  0
 26185  1  0  0  0  0
 27 76  1  0  0  0  0
 27177  1  0  0  0  0
 27178  1  0  0  0  0
 27186  1  0  0  0  0
 28 77  1  0  0  0  0
 28179  1  0  0  0  0
 28180  1  0  0  0  0
 28187  1  0  0  0  0
 29 79  1  0  0  0  0
 29182  1  0  0  0  0
 29183  1  0  0  0  0
 29188  1  0  0  0  0
 30 31  1  0  0  0  0
 30 38  1  0  0  0  0
 30 86  1  1  0  0  0
 31 32  1  0  0  0  0
 31 87  1  0  0  0  0
 31 88  1  0  0  0  0
 32 46  1  0  0  0  0
 32 47  1  0  0  0  0
 32 89  1  0  0  0  0
 33 34  1  0  0  0  0
 33 44  1  0  0  0  0
 33 57  1  0  0  0  0
 33 90  1  1  0  0  0
 34 39  1  0  0  0  0
 34 91  1  0  0  0  0
 34 92  1  0  0  0  0
 35 42  1  0  0  0  0
 35 45  1  0  0  0  0
 35 93  1  6  0  0  0
 36 48  1  0  0  0  0
 36 55  1  0  0  0  0
 36 94  1  6  0  0  0
 37 18  1  0  0  0  0
 37 41  1  0  0  0  0
 37 52  1  0  0  0  0
 37 95  1  6  0  0  0
 39 43  1  0  0  0  0
 39 97  1  0  0  0  0
 39 98  1  0  0  0  0
 40 51  1  0  0  0  0
 40 53  1  0  0  0  0
 40 99  1  6  0  0  0
 41 54  1  0  0  0  0
 41100  1  0  0  0  0
 41101  1  0  0  0  0
 43 58  1  0  0  0  0
 43103  1  0  0  0  0
 43104  1  0  0  0  0
 44 71  1  0  0  0  0
 44105  1  0  0  0  0
 44106  1  0  0  0  0
 45 67  1  0  0  0  0
 45107  1  0  0  0  0
 45108  1  0  0  0  0
 46109  1  0  0  0  0
 46110  1  0  0  0  0
 46111  1  0  0  0  0
 47112  1  0  0  0  0
 47113  1  0  0  0  0
 47114  1  0  0  0  0
 48 66  1  0  0  0  0
 48116  1  0  0  0  0
 48117  1  0  0  0  0
 49 20  1  0  0  0  0
 49 60  1  0  0  0  0
 49 62  1  0  0  0  0
 49115  1  6  0  0  0
 50 63  1  0  0  0  0
 50 64  1  0  0  0  0
 50118  1  6  0  0  0
 51 72  1  0  0  0  0
 51120  1  0  0  0  0
 51121  1  0  0  0  0
 54122  1  0  0  0  0
 54123  1  0  0  0  0
 56 65  1  0  0  0  0
 56 68  1  0  0  0  0
 56126  1  6  0  0  0
 57127  1  0  0  0  0
 57128  1  0  0  0  0
 57129  1  0  0  0  0
 58 73  1  0  0  0  0
 58130  1  0  0  0  0
 58131  1  0  0  0  0
 59 23  1  0  0  0  0
 59 69  1  0  0  0  0
 59 70  1  0  0  0  0
 59132  1  6  0  0  0
 61 24  1  0  0  0  0
 61 74  1  0  0  0  0
 61 75  1  0  0  0  0
 61134  1  1  0  0  0
 62 76  1  0  0  0  0
 62135  1  0  0  0  0
 62136  1  0  0  0  0
 63 77  1  0  0  0  0
 63137  1  0  0  0  0
 63138  1  0  0  0  0
 65  6  1  0  0  0  0
 65 78  1  0  0  0  0
 65140  1  1  0  0  0
 66143  1  0  0  0  0
 66144  1  0  0  0  0
 67 81  2  0  0  0  0
 67 82  1  0  0  0  0
 70  8  1  0  0  0  0
 70 80  1  0  0  0  0
 70145  1  1  0  0  0
 71146  1  0  0  0  0
 71147  1  0  0  0  0
 71148  1  0  0  0  0
 72149  1  0  0  0  0
 72150  1  0  0  0  0
 74 79  1  0  0  0  0
 74151  1  0  0  0  0
 74152  1  0  0  0  0
 76155  1  0  0  0  0
 76156  1  0  0  0  0
 77157  1  0  0  0  0
 77158  1  0  0  0  0
 78159  1  0  0  0  0
 78160  1  0  0  0  0
 78161  1  0  0  0  0
 79162  1  0  0  0  0
 79163  1  0  0  0  0
 80164  1  0  0  0  0
 80165  1  0  0  0  0
 80166  1  0  0  0  0
 81 83  1  0  0  0  0
 81167  1  0  0  0  0
 82 84  2  0  0  0  0
 82168  1  0  0  0  0
 83 85  2  0  0  0  0
 83175  1  0  0  0  0
 84 85  1  0  0  0  0
 84176  1  0  0  0  0
 85181  1  0  0  0  0
M  CHG  5  25   1  26   1  27   1  28   1  29   1
M  END
