@<TRIPOS>MOLECULE
pmb
 188 189 0 0 0
SMALL
GASTEIGER

@<TRIPOS>ATOM
      1 O          -6.7852   -3.0469   11.1601 O.2     1  UNL11      -0.2738
      2 O          -4.3010   -2.5807   15.7029 O.2     1  UNL11      -0.2738
      3 O          -5.4895    2.8140   13.7039 O.2     1  UNL11      -0.2738
      4 O          -6.2738    1.0933   18.0936 O.2     1  UNL11      -0.2738
      5 O          -7.2798    1.8008    9.8696 O.2     1  UNL11      -0.2738
      6 O           0.5638    3.7379   10.4266 O.3     1  UNL11      -0.3897
      7 O          -1.6415    1.8555   17.4570 O.2     1  UNL11      -0.2738
      8 O          -4.3969    8.1324   14.4418 O.3     1  UNL11      -0.3897
      9 O          -2.9616    3.5033   11.7376 O.2     1  UNL11      -0.2738
     10 O          -1.7640   -0.1314    9.1946 O.2     1  UNL11      -0.2737
     11 O          -2.7707    6.4066   18.0062 O.2     1  UNL11      -0.2737
     12 O          -5.3357    6.9387   20.0810 O.2     1  UNL11      -0.2758
     13 O          -6.4672    5.0205   14.9480 O.2     1  UNL11      -0.2738
     14 N          -6.2880   -2.7547   14.6034 N.am    1  UNL11      -0.3025
     15 N          -6.2351   -1.0066   11.8747 N.am    1  UNL11      -0.3023
     16 N          -6.1003   -1.0770   17.7215 N.am    1  UNL11      -0.3022
     17 N          -5.6198    1.8697   15.6537 N.am    1  UNL11      -0.3023
     18 N          -2.8101    1.5875   15.6431 N.am    1  UNL11      -0.3024
     19 N          -5.1459    1.6644   10.5497 N.am    1  UNL11      -0.3023
     20 N          -1.9028    4.6445   17.0634 N.am    1  UNL11      -0.3022
     21 N          -2.2561    2.8137    9.7233 N.am    1  UNL11      -0.3003
     22 N          -2.2103    0.0177   11.3347 N.am    1  UNL11      -0.3136
     23 N          -4.3668    5.4746   15.2008 N.am    1  UNL11      -0.3003
     24 N          -5.5954    5.9093   18.1525 N.am    1  UNL11      -0.3038
     25 N         -10.6231   -0.3373   11.3554 N.4     1  UNL11       0.2186
     26 N          -9.2906    0.5944   16.3869 N.4     1  UNL11       0.2186
     27 N           2.3043    4.9271   15.9611 N.4     1  UNL11       0.2186
     28 N          -6.2925    6.5065   10.8545 N.4     1  UNL11       0.2186
     29 N          -9.4307    3.2206   17.3199 N.4     1  UNL11       0.2186
     30 C          -5.8083   -3.1348   13.2995 C.3     1  UNL11       0.0996
     31 C          -6.2312   -4.6550   13.1973 C.3     1  UNL11      -0.0236
     32 C          -5.5494   -5.6503   14.1792 C.3     1  UNL11      -0.0446
     33 C          -2.9603    0.3374   21.5528 C.3     1  UNL11      -0.0441
     34 C          -2.8826    1.7732   20.9518 C.3     1  UNL11      -0.0505
     35 C          -6.2143   -2.3785   17.1055 C.3     1  UNL11       0.1034
     36 C          -6.7552   -0.3525   10.6661 C.3     1  UNL11       0.1042
     37 C          -3.4593    1.8461   14.4031 C.3     1  UNL11       0.1008
     38 C          -6.3218   -2.3668   12.1072 C.2     1  UNL11       0.2340
     39 C          -4.2399    2.4602   20.9093 C.3     1  UNL11      -0.0524
     40 C          -6.0911    0.5334   15.8053 C.3     1  UNL11       0.1042
     41 C          -3.4182    0.6049   13.4461 C.3     1  UNL11      -0.0103
     42 C          -5.5541   -2.5739   15.7622 C.2     1  UNL11       0.2343
     43 C          -4.0058    3.8654   20.3618 C.3     1  UNL11      -0.0448
     44 C          -1.5186   -0.2536   21.6741 C.3     1  UNL11      -0.0533
     45 C          -5.6586   -3.3965   18.1749 C.3     1  UNL11      -0.0007
     46 C          -6.1623   -7.0732   14.0062 C.3     1  UNL11      -0.0626
     47 C          -4.0035   -5.6921   13.9762 C.3     1  UNL11      -0.0626
     48 C          -8.3132   -0.6078   10.4677 C.3     1  UNL11       0.0143
     49 C          -1.4165    3.7411   16.0632 C.3     1  UNL11       0.1042
     50 C          -4.7127    3.0133   10.1794 C.3     1  UNL11       0.1042
     51 C          -7.3262    0.1782   14.9037 C.3     1  UNL11       0.0143
     52 C          -4.8614    2.2590   14.6230 C.2     1  UNL11       0.2340
     53 C          -6.1990    0.1874   17.2296 C.2     1  UNL11       0.2341
     54 C          -2.0643    0.4335   12.7035 C.3     1  UNL11       0.0138
     55 C          -6.3983    1.0928   10.4084 C.2     1  UNL11       0.2341
     56 C          -1.1131    1.9834   10.0157 C.3     1  UNL11       0.1252
     57 C          -3.8833   -0.6122   20.7066 C.3     1  UNL11      -0.0624
     58 C          -5.3900    4.5980   20.3022 C.3     1  UNL11       0.0240
     59 C          -3.2991    6.3050   15.6922 C.3     1  UNL11       0.1252
     60 C          -1.9718    2.3837   16.3726 C.2     1  UNL11       0.2341
     61 C          -5.8702    4.8485   17.2340 C.3     1  UNL11       0.1041
     62 C           0.1493    3.6931   16.1235 C.3     1  UNL11       0.0143
     63 C          -5.6097    4.1665   10.7708 C.3     1  UNL11       0.0143
     64 C          -3.2664    3.1513   10.5783 C.2     1  UNL11       0.2342
     65 C          -0.0087    2.5587   10.9797 C.3     1  UNL11       0.0792
     66 C          -9.2069   -0.0381   11.5924 C.3     1  UNL11      -0.0332
     67 C          -6.3116   -4.7299   18.1943 C.3     1  UNL11      -0.0451
     68 C          -1.6750    0.5973   10.2123 C.2     1  UNL11       0.2359
     69 C          -2.6628    5.7722   16.9336 C.2     1  UNL11       0.2365
     70 C          -3.9012    7.7614   15.7271 C.3     1  UNL11       0.0792
     71 C          -0.5433    0.5740   22.5671 C.3     1  UNL11      -0.0650
     72 C          -8.7049    0.8511   15.0565 C.3     1  UNL11      -0.0332
     73 C          -5.5265    5.8569   19.4819 C.2     1  UNL11       0.2136
     74 C          -7.3276    4.4054   17.5521 C.3     1  UNL11       0.0143
     75 C          -5.5602    5.1446   15.8025 C.2     1  UNL11       0.2342
     76 C           0.8451    5.0428   15.8536 C.3     1  UNL11      -0.0332
     77 C          -5.3698    5.5720   10.1926 C.3     1  UNL11      -0.0332
     78 C           1.1496    1.5681   11.2331 C.3     1  UNL11      -0.0367
     79 C          -8.2070    3.6316   16.6295 C.3     1  UNL11      -0.0332
     80 C          -2.9382    8.8794   16.1630 C.3     1  UNL11      -0.0367
     81 C          -5.6054   -5.8604   17.7328 C.3     1  UNL11      -0.0585
     82 C          -7.6020   -4.9195   18.7510 C.3     1  UNL11      -0.0585
     83 C          -6.1658   -7.1423   17.7935 C.3     1  UNL11      -0.0615
     84 C          -8.1549   -6.2114   18.8451 C.3     1  UNL11      -0.0615
     85 C          -7.4393   -7.3231   18.3587 C.3     1  UNL11      -0.0617
     86 H          -4.7239   -3.0104   13.2315 H       1  UNL11       0.0594
     87 H          -7.3232   -4.7002   13.3512 H       1  UNL11       0.0290
     88 H          -6.0399   -5.0479   12.1943 H       1  UNL11       0.0290
     89 H          -5.7772   -5.3138   15.1854 H       1  UNL11       0.0296
     90 H          -3.3864    0.4131   22.5654 H       1  UNL11       0.0298
     91 H          -2.4262    1.7294   19.9549 H       1  UNL11       0.0268
     92 H          -2.2705    2.4363   21.5692 H       1  UNL11       0.0268
     93 H          -7.2981   -2.5111   16.9806 H       1  UNL11       0.0598
     94 H          -6.2496   -0.8581    9.8380 H       1  UNL11       0.0596
     95 H          -2.9801    2.6922   13.9390 H       1  UNL11       0.0595
     96 H          -7.2569   -2.7230   14.6957 H       1  UNL11       0.1495
     97 H          -4.9144    1.9281   20.2239 H       1  UNL11       0.0265
     98 H          -4.6781    2.4880   21.9137 H       1  UNL11       0.0265
     99 H          -5.2594   -0.0855   15.4814 H       1  UNL11       0.0596
    100 H          -4.2010    0.7311   12.7021 H       1  UNL11       0.0303
    101 H          -3.6389   -0.3209   13.9860 H       1  UNL11       0.0303
    102 H          -5.7971   -0.4604   12.5471 H       1  UNL11       0.1495
    103 H          -3.6123    3.7598   19.3507 H       1  UNL11       0.0270
    104 H          -3.2984    4.4517   20.9441 H       1  UNL11       0.0270
    105 H          -1.5923   -1.2639   22.0937 H       1  UNL11       0.0265
    106 H          -1.0831   -0.3591   20.6736 H       1  UNL11       0.0265
    107 H          -5.7758   -3.0304   19.1971 H       1  UNL11       0.0336
    108 H          -4.5693   -3.4860   18.0811 H       1  UNL11       0.0336
    109 H          -5.6933   -7.7874   14.6819 H       1  UNL11       0.0232
    110 H          -7.2348   -7.0722   14.2121 H       1  UNL11       0.0232
    111 H          -6.0109   -7.4198   12.9838 H       1  UNL11       0.0232
    112 H          -3.5382   -6.4134   14.6488 H       1  UNL11       0.0232
    113 H          -3.7826   -5.9737   12.9442 H       1  UNL11       0.0232
    114 H          -3.5288   -4.7307   14.1750 H       1  UNL11       0.0232
    115 H          -1.7070    4.0704   15.0671 H       1  UNL11       0.0596
    116 H          -8.6453   -0.2025    9.5062 H       1  UNL11       0.0340
    117 H          -8.5451   -1.6708   10.4154 H       1  UNL11       0.0340
    118 H          -4.7631    3.0459    9.0828 H       1  UNL11       0.0596
    119 H          -5.9838   -1.0912   18.6807 H       1  UNL11       0.1495
    120 H          -7.6246   -0.8347   15.1225 H       1  UNL11       0.0340
    121 H          -6.9882    0.2844   13.8653 H       1  UNL11       0.0340
    122 H          -1.5410    1.3641   12.7855 H       1  UNL11       0.0463
    123 H          -1.4484   -0.3243   13.1956 H       1  UNL11       0.0463
    124 H          -5.9311    2.5422   16.2759 H       1  UNL11       0.1495
    125 H          -3.0090    0.7190   16.0223 H       1  UNL11       0.1495
    126 H          -0.6087    1.9527    9.0397 H       1  UNL11       0.0621
    127 H          -3.8942   -1.6234   21.1291 H       1  UNL11       0.0232
    128 H          -4.9265   -0.2794   20.6779 H       1  UNL11       0.0232
    129 H          -3.5138   -0.6568   19.6767 H       1  UNL11       0.0232
    130 H          -6.0579    3.8227   19.9041 H       1  UNL11       0.0358
    131 H          -5.7982    4.7143   21.2894 H       1  UNL11       0.0358
    132 H          -2.5269    6.3098   14.9135 H       1  UNL11       0.0621
    133 H          -4.4518    1.0727   10.8675 H       1  UNL11       0.1495
    134 H          -5.1832    4.0361   17.4578 H       1  UNL11       0.0596
    135 H           0.4729    3.3822   17.1226 H       1  UNL11       0.0340
    136 H           0.5176    2.9698   15.3874 H       1  UNL11       0.0340
    137 H          -6.6731    3.9704   10.6042 H       1  UNL11       0.0340
    138 H          -5.4289    4.2594   11.8401 H       1  UNL11       0.0340
    139 H          -1.6164    4.4483   17.9677 H       1  UNL11       0.1495
    140 H          -0.3896    2.8913   11.9439 H       1  UNL11       0.0614
    141 H          -2.3956    3.0123    8.7840 H       1  UNL11       0.1496
    142 H          -2.7343   -0.7893   11.1702 H       1  UNL11       0.1487
    143 H          -9.0959    1.0449   11.7294 H       1  UNL11       0.0814
    144 H          -8.9121   -0.5656   12.4908 H       1  UNL11       0.0814
    145 H          -4.7605    7.8057   16.3916 H       1  UNL11       0.0614
    146 H           0.4145    0.0555   22.6566 H       1  UNL11       0.0230
    147 H          -0.9868    0.6996   23.5600 H       1  UNL11       0.0230
    148 H          -0.3337    1.5646   22.1505 H       1  UNL11       0.0230
    149 H          -9.4255    0.3398   14.4250 H       1  UNL11       0.0814
    150 H          -8.6681    1.8833   14.6831 H       1  UNL11       0.0814
    151 H          -7.9357    5.2609   17.7727 H       1  UNL11       0.0340
    152 H          -7.3004    3.6793   18.3759 H       1  UNL11       0.0340
    153 H          -4.2798    5.2430   14.2484 H       1  UNL11       0.1496
    154 H          -5.4926    6.7816   17.7873 H       1  UNL11       0.1495
    155 H           0.4861    5.7855   16.5661 H       1  UNL11       0.0814
    156 H           0.5759    5.3829   14.8537 H       1  UNL11       0.0814
    157 H          -5.5688    5.5628    9.1209 H       1  UNL11       0.0814
    158 H          -4.3321    5.8656   10.3509 H       1  UNL11       0.0814
    159 H           0.7529    0.6464   11.6589 H       1  UNL11       0.0255
    160 H           1.6511    1.3467   10.2910 H       1  UNL11       0.0255
    161 H           1.8620    2.0123   11.9283 H       1  UNL11       0.0255
    162 H          -8.4651    4.2499   15.7697 H       1  UNL11       0.0814
    163 H          -7.6823    2.7337   16.3032 H       1  UNL11       0.0814
    164 H          -2.5288    8.6437   17.1453 H       1  UNL11       0.0255
    165 H          -3.4778    9.8252   16.2116 H       1  UNL11       0.0255
    166 H          -2.1259    8.9612   15.4408 H       1  UNL11       0.0255
    167 H          -4.6698   -5.7513   17.3418 H       1  UNL11       0.0620
    168 H          -8.1308   -4.1221   19.1184 H       1  UNL11       0.0620
    169 H         -11.1853    0.0521   12.1149 H       1  UNL11       0.1994
    170 H         -10.9151    0.0776   10.4682 H       1  UNL11       0.1994
    171 H         -10.2011    1.0538   16.4527 H       1  UNL11       0.1994
    172 H          -9.4066   -0.4123   16.5195 H       1  UNL11       0.1994
    173 H          -0.1354    4.4132   10.3021 H       1  UNL11       0.2099
    174 H          -3.6655    8.1073   13.7899 H       1  UNL11       0.2099
    175 H          -5.6433   -7.9403   17.4236 H       1  UNL11       0.0618
    176 H          -9.0733   -6.3506   19.2760 H       1  UNL11       0.0618
    177 H           2.7326    5.8366   15.7770 H       1  UNL11       0.1994
    178 H           2.5531    4.6178   16.9028 H       1  UNL11       0.1994
    179 H          -6.1485    7.4478   10.4833 H       1  UNL11       0.1994
    180 H          -7.2563    6.2150   10.6793 H       1  UNL11       0.1994
    181 H          -7.8402   -8.2615   18.4141 H       1  UNL11       0.0618
    182 H         -10.0235    2.6918   16.6769 H       1  UNL11       0.1994
    183 H          -9.9338    4.0491   17.6438 H       1  UNL11       0.1994
    184 H         -10.7558   -1.3499   11.3180 H       1  UNL11       0.1994
    185 H          -8.6695    0.9638   17.1096 H       1  UNL11       0.1994
    186 H           2.6433    4.2465   15.2782 H       1  UNL11       0.1994
    187 H          -6.1140    6.5061   11.8607 H       1  UNL11       0.1994
    188 H          -9.1892    2.6338   18.1211 H       1  UNL11       0.1994
@<TRIPOS>UNITY_ATOM_ATTR
25 1
charge 1
26 1
charge 1
27 1
charge 1
28 1
charge 1
29 1
charge 1
@<TRIPOS>BOND
     1     1    38    2
     2     2    42    2
     3     3    52    2
     4     4    53    2
     5     5    55    2
     6    65     6    1
     7     6   173    1
     8     7    60    2
     9    70     8    1
    10     8   174    1
    11     9    64    2
    12    10    68    2
    13    11    69    2
    14    12    73    2
    15    13    75    2
    16    14    30    1
    17    14    42   am
    18    14    96    1
    19    15    36    1
    20    15    38   am
    21    15   102    1
    22    16    35    1
    23    16    53   am
    24    16   119    1
    25    17    40    1
    26    17    52   am
    27    17   124    1
    28    37    18    1
    29    18    60   am
    30    18   125    1
    31    19    50    1
    32    19    55   am
    33    19   133    1
    34    49    20    1
    35    20    69   am
    36    20   139    1
    37    21    56    1
    38    21    64   am
    39    21   141    1
    40    22    54    1
    41    22    68   am
    42    22   142    1
    43    59    23    1
    44    23    75   am
    45    23   153    1
    46    61    24    1
    47    24    73   am
    48    24   154    1
    49    25    66    1
    50    25   169    1
    51    25   170    1
    52    26    72    1
    53    26   171    1
    54    26   172    1
    55    27    76    1
    56    27   177    1
    57    27   178    1
    58    28    77    1
    59    28   179    1
    60    28   180    1
    61    29    79    1
    62    29   182    1
    63    29   183    1
    64    30    31    1
    65    30    38    1
    66    30    86    1
    67    31    32    1
    68    31    87    1
    69    31    88    1
    70    32    46    1
    71    32    47    1
    72    32    89    1
    73    33    34    1
    74    33    44    1
    75    33    57    1
    76    33    90    1
    77    34    39    1
    78    34    91    1
    79    34    92    1
    80    35    42    1
    81    35    45    1
    82    35    93    1
    83    36    48    1
    84    36    55    1
    85    36    94    1
    86    37    41    1
    87    37    52    1
    88    37    95    1
    89    39    43    1
    90    39    97    1
    91    39    98    1
    92    40    51    1
    93    40    53    1
    94    40    99    1
    95    41    54    1
    96    41   100    1
    97    41   101    1
    98    43    58    1
    99    43   103    1
   100    43   104    1
   101    44    71    1
   102    44   105    1
   103    44   106    1
   104    45    67    1
   105    45   107    1
   106    45   108    1
   107    46   109    1
   108    46   110    1
   109    46   111    1
   110    47   112    1
   111    47   113    1
   112    47   114    1
   113    48    66    1
   114    48   116    1
   115    48   117    1
   116    49    60    1
   117    49    62    1
   118    49   115    1
   119    50    63    1
   120    50    64    1
   121    50   118    1
   122    51    72    1
   123    51   120    1
   124    51   121    1
   125    54   122    1
   126    54   123    1
   127    56    65    1
   128    56    68    1
   129    56   126    1
   130    57   127    1
   131    57   128    1
   132    57   129    1
   133    58    73    1
   134    58   130    1
   135    58   131    1
   136    59    69    1
   137    59    70    1
   138    59   132    1
   139    61    74    1
   140    61    75    1
   141    61   134    1
   142    62    76    1
   143    62   135    1
   144    62   136    1
   145    63    77    1
   146    63   137    1
   147    63   138    1
   148    65    78    1
   149    65   140    1
   150    66   143    1
   151    66   144    1
   152    67    81   ar
   153    67    82   ar
   154    70    80    1
   155    70   145    1
   156    71   146    1
   157    71   147    1
   158    71   148    1
   159    72   149    1
   160    72   150    1
   161    74    79    1
   162    74   151    1
   163    74   152    1
   164    76   155    1
   165    76   156    1
   166    77   157    1
   167    77   158    1
   168    78   159    1
   169    78   160    1
   170    78   161    1
   171    79   162    1
   172    79   163    1
   173    80   164    1
   174    80   165    1
   175    80   166    1
   176    81    83   ar
   177    81   167    1
   178    82    84   ar
   179    82   168    1
   180    83    85   ar
   181    83   175    1
   182    84    85   ar
   183    84   176    1
   184    85   181    1
   185    25   184    1
   186    26   185    1
   187    27   186    1
   188    28   187    1
   189    29   188    1
