49800004
  MJ221101                      

188189  0  0  1  0  0  0  0  0999 V2000
    2.6832    1.8662    1.2911 O   0  0  0  0  0  0  0  0  0  0  0  0
    2.5809    0.8687   -1.3556 O   0  0  0  0  0  0  0  0  0  0  0  0
    0.7551    0.7126    0.0322 O   0  0  0  0  0  0  0  0  0  0  0  0
    0.7764    2.4630   -0.8060 O   0  0  0  0  0  0  0  0  0  0  0  0
    0.9972    1.1145    2.5464 O   0  0  0  0  0  0  0  0  0  0  0  0
    0.9290   -2.8348    1.7131 O   0  0  0  0  0  0  0  0  0  0  0  0
   -0.3874   -0.3559   -1.8075 O   0  0  0  0  0  0  0  0  0  0  0  0
   -1.8233   -3.6403   -0.9027 O   0  0  0  0  0  0  0  0  0  0  0  0
    1.9758   -0.5760    0.8976 O   0  0  0  0  0  0  0  0  0  0  0  0
    0.7802   -2.3932    0.1220 O   0  0  0  0  0  0  0  0  0  0  0  0
   -0.5192   -2.5729   -1.8739 O   0  0  0  0  0  0  0  0  0  0  0  0
   -0.8101   -1.2718    0.5160 O   0  0  0  0  0  0  0  0  0  0  0  0
   -1.7603   -3.0678    0.3396 O   0  0  0  0  0  0  0  0  0  0  0  0
    2.2345    1.7306   -0.5524 N   0  0  0  0  0  0  0  0  0  0  0  0
    1.5916    1.6518    0.7823 N   0  0  0  0  0  0  0  0  0  0  0  0
    1.0124    1.5361   -1.5715 N   0  0  0  0  0  0  0  0  0  0  0  0
   -0.0053    0.7331   -0.9197 N   0  0  0  0  0  0  0  0  0  0  0  0
   -0.1924   -0.8039   -0.6918 N   0  0  0  0  0  0  0  0  0  0  0  0
    1.2112    0.4759    1.5303 N   0  0  0  0  0  0  0  0  0  0  0  0
   -1.0502   -1.9491   -0.9659 N   0  0  0  0  0  0  0  0  0  0  0  0
    1.3676   -1.4764    1.4384 N   0  0  0  0  0  0  0  0  0  0  0  0
    1.6115   -1.5457   -0.2074 N   0  0  0  0  0  0  0  0  0  0  0  0
   -0.5801   -2.9418    0.0387 N   0  0  0  0  0  0  0  0  0  0  0  0
   -1.4314   -1.9346    1.3266 N   0  0  0  0  0  0  0  0  0  0  0  0
    0.2910    3.0530    2.0492 N   0  3  0  0  0  0  0  0  0  0  0  0
   -0.9249    2.8884   -0.8051 N   0  3  0  0  0  0  0  0  0  0  0  0
   -3.1470   -0.9557   -0.9349 N   0  3  0  0  0  0  0  0  0  0  0  0
   -0.4212   -0.9997    2.8923 N   0  3  0  0  0  0  0  0  0  0  0  0
   -0.9366   -3.4217    3.0979 N   0  3  0  0  0  0  0  0  0  0  0  0
    2.6614    1.4517    0.0448 C   0  0  0  0  0  0  0  0  0  0  0  0
    3.4491    1.6815   -0.0297 C   0  0  0  0  0  0  0  0  0  0  0  0
    3.9845    1.2168    0.3961 C   0  0  0  0  0  0  0  0  0  0  0  0
   -2.6214    1.5055    0.3569 C   0  0  0  0  0  0  0  0  0  0  0  0
   -2.0841    0.8781    0.3970 C   0  0  0  0  0  0  0  0  0  0  0  0
    1.7315    1.7739   -1.7638 C   0  0  0  0  0  0  0  0  0  0  0  0
    1.1768    1.7944    1.4366 C   0  0  0  0  0  0  0  0  0  0  0  0
    0.4665   -0.4341   -0.4982 C   0  0  0  0  0  0  0  0  0  0  0  0
    2.3287    1.7040    0.7617 C   0  0  0  0  0  0  0  0  0  0  0  0
   -1.8781    0.6674    1.1641 C   0  0  0  0  0  0  0  0  0  0  0  0
   -0.1124    1.5104   -0.8958 C   0  0  0  0  0  0  0  0  0  0  0  0
    1.0997   -0.6170   -0.9881 C   0  0  0  0  0  0  0  0  0  0  0  0
    2.2381    1.4142   -1.2206 C   0  0  0  0  0  0  0  0  0  0  0  0
   -1.3958    0.0051    1.1877 C   0  0  0  0  0  0  0  0  0  0  0  0
   -2.7936    1.7163   -0.4236 C   0  0  0  0  0  0  0  0  0  0  0  0
    1.9274    1.5593   -2.5326 C   0  0  0  0  0  0  0  0  0  0  0  0
    4.7266    1.5664    0.3801 C   0  0  0  0  0  0  0  0  0  0  0  0
    4.0357    0.4534    0.1010 C   0  0  0  0  0  0  0  0  0  0  0  0
    0.4138    2.0228    1.2288 C   0  0  0  0  0  0  0  0  0  0  0  0
   -1.1855   -1.3080   -1.3937 C   0  0  0  0  0  0  0  0  0  0  0  0
    1.1715   -0.2262    1.8701 C   0  0  0  0  0  0  0  0  0  0  0  0
   -0.6932    1.7348   -1.4290 C   0  0  0  0  0  0  0  0  0  0  0  0
    0.3952    0.3820   -0.4123 C   0  0  0  0  0  0  0  0  0  0  0  0
    0.6040    1.8825   -1.0655 C   0  0  0  0  0  0  0  0  0  0  0  0
    1.3361   -1.3980   -0.9182 C   0  0  0  0  0  0  0  0  0  0  0  0
    1.1487    1.1091    1.9050 C   0  0  0  0  0  0  0  0  0  0  0  0
    1.6899   -2.0406    0.9999 C   0  0  0  0  0  0  0  0  0  0  0  0
   -2.3509    2.1705    0.7562 C   0  0  0  0  0  0  0  0  0  0  0  0
   -1.8048   -0.7006    1.1132 C   0  0  0  0  0  0  0  0  0  0  0  0
   -0.5892   -3.1674   -0.7182 C   0  0  0  0  0  0  0  0  0  0  0  0
   -0.5335   -0.8013   -1.3434 C   0  0  0  0  0  0  0  0  0  0  0  0
   -0.9679   -2.5586    1.2380 C   0  0  0  0  0  0  0  0  0  0  0  0
   -1.8522   -0.9078   -1.1319 C   0  0  0  0  0  0  0  0  0  0  0  0
    0.3887   -0.4083    2.0469 C   0  0  0  0  0  0  0  0  0  0  0  0
    1.5350   -0.7656    1.3531 C   0  0  0  0  0  0  0  0  0  0  0  0
    1.6144   -2.7780    1.3662 C   0  0  0  0  0  0  0  0  0  0  0  0
   -0.0116    2.3649    1.8390 C   0  0  0  0  0  0  0  0  0  0  0  0
    1.4535    1.9163   -3.0844 C   0  0  0  0  0  0  0  0  0  0  0  0
    1.3162   -2.0364    0.2614 C   0  0  0  0  0  0  0  0  0  0  0  0
   -0.7007   -2.5370   -1.2413 C   0  0  0  0  0  0  0  0  0  0  0  0
   -1.0764   -3.8036   -0.9312 C   0  0  0  0  0  0  0  0  0  0  0  0
   -3.1081    1.1125   -0.8718 C   0  0  0  0  0  0  0  0  0  0  0  0
   -0.8077    2.5437   -1.4965 C   0  0  0  0  0  0  0  0  0  0  0  0
   -1.2943   -1.3127    0.9611 C   0  0  0  0  0  0  0  0  0  0  0  0
   -1.0872   -3.1236    1.8207 C   0  0  0  0  0  0  0  0  0  0  0  0
   -1.1470   -2.8910    0.5025 C   0  0  0  0  0  0  0  0  0  0  0  0
   -2.5301   -1.3608   -1.1958 C   0  0  0  0  0  0  0  0  0  0  0  0
    0.3227   -0.7902    2.7683 C   0  0  0  0  0  0  0  0  0  0  0  0
    2.1930   -2.8850    1.9340 C   0  0  0  0  0  0  0  0  0  0  0  0
   -0.8451   -2.8631    2.5574 C   0  0  0  0  0  0  0  0  0  0  0  0
   -0.9349   -4.4722   -0.4835 C   0  0  0  0  0  0  0  0  0  0  0  0
    1.5520    2.6395   -3.2606 C   0  0  0  0  0  0  0  0  0  0  0  0
    0.9000    1.5324   -3.4165 C   0  0  0  0  0  0  0  0  0  0  0  0
    1.1046    2.9718   -3.7591 C   0  0  0  0  0  0  0  0  0  0  0  0
    0.4534    1.8661   -3.9147 C   0  0  0  0  0  0  0  0  0  0  0  0
    0.5556    2.5855   -4.0856 C   0  0  0  0  0  0  0  0  0  0  0  0
    2.6095    0.8676    0.0296 H   0  0  0  0  0  0  0  0  0  0  0  0
    3.6081    1.6720   -0.5961 H   0  0  0  0  0  0  0  0  0  0  0  0
    3.5000    2.2425    0.1401 H   0  0  0  0  0  0  0  0  0  0  0  0
    3.8159    1.1845    0.9574 H   0  0  0  0  0  0  0  0  0  0  0  0
   -3.1223    1.3346    0.6136 H   0  0  0  0  0  0  0  0  0  0  0  0
   -1.5971    1.0173    0.0985 H   0  0  0  0  0  0  0  0  0  0  0  0
   -2.3171    0.4105    0.1306 H   0  0  0  0  0  0  0  0  0  0  0  0
    1.7691    2.3563   -1.6963 H   0  0  0  0  0  0  0  0  0  0  0  0
    1.4554    2.2107    1.7420 H   0  0  0  0  0  0  0  0  0  0  0  0
    0.5813   -0.6230    0.0462 H   0  0  0  0  0  0  0  0  0  0  0  0
    1.9033    2.1557   -0.4635 H   0  0  0  0  0  0  0  0  0  0  0  0
   -1.5809    1.1098    1.4106 H   0  0  0  0  0  0  0  0  0  0  0  0
   -2.3591    0.5788    1.4889 H   0  0  0  0  0  0  0  0  0  0  0  0
   -0.2619    1.6487   -0.3451 H   0  0  0  0  0  0  0  0  0  0  0  0
    0.9671   -0.5063   -1.5492 H   0  0  0  0  0  0  0  0  0  0  0  0
    1.5549   -0.2685   -0.8562 H   0  0  0  0  0  0  0  0  0  0  0  0
    1.3316    1.4255    0.3576 H   0  0  0  0  0  0  0  0  0  0  0  0
   -1.1219   -0.0025    1.7067 H   0  0  0  0  0  0  0  0  0  0  0  0
   -0.9750    0.0540    0.7806 H   0  0  0  0  0  0  0  0  0  0  0  0
   -2.3103    1.9185   -0.6886 H   0  0  0  0  0  0  0  0  0  0  0  0
   -3.1800    2.1594   -0.4199 H   0  0  0  0  0  0  0  0  0  0  0  0
    2.4873    1.7004   -2.6447 H   0  0  0  0  0  0  0  0  0  0  0  0
    1.8956    0.9754   -2.5979 H   0  0  0  0  0  0  0  0  0  0  0  0
    4.7081    2.1053    0.6114 H   0  0  0  0  0  0  0  0  0  0  0  0
    4.9298    1.6105   -0.1685 H   0  0  0  0  0  0  0  0  0  0  0  0
    5.1120    1.2523    0.6918 H   0  0  0  0  0  0  0  0  0  0  0  0
    3.5314    0.1624    0.1662 H   0  0  0  0  0  0  0  0  0  0  0  0
    4.1733    0.4546   -0.4693 H   0  0  0  0  0  0  0  0  0  0  0  0
    4.4486    0.1483    0.3853 H   0  0  0  0  0  0  0  0  0  0  0  0
   -1.2452   -1.4626   -1.9570 H   0  0  0  0  0  0  0  0  0  0  0  0
    0.4356    2.3996    0.7773 H   0  0  0  0  0  0  0  0  0  0  0  0
    0.1124    1.5560    1.0362 H   0  0  0  0  0  0  0  0  0  0  0  0
    1.4981   -0.2040    2.3580 H   0  0  0  0  0  0  0  0  0  0  0  0
    0.8477    1.0442   -1.7328 H   0  0  0  0  0  0  0  0  0  0  0  0
   -0.5653    1.5249   -1.9636 H   0  0  0  0  0  0  0  0  0  0  0  0
   -1.1994    1.4791   -1.2733 H   0  0  0  0  0  0  0  0  0  0  0  0
    1.7763   -1.5014   -1.2918 H   0  0  0  0  0  0  0  0  0  0  0  0
    0.8989   -1.7659   -1.0493 H   0  0  0  0  0  0  0  0  0  0  0  0
   -0.2480    0.4359   -1.3096 H   0  0  0  0  0  0  0  0  0  0  0  0
   -0.4081   -1.1154   -0.2967 H   0  0  0  0  0  0  0  0  0  0  0  0
    2.2584   -1.9181    0.9133 H   0  0  0  0  0  0  0  0  0  0  0  0
   -2.7176    2.6226    0.6826 H   0  0  0  0  0  0  0  0  0  0  0  0
   -1.8213    2.3330    0.5632 H   0  0  0  0  0  0  0  0  0  0  0  0
   -2.3144    2.0733    1.3331 H   0  0  0  0  0  0  0  0  0  0  0  0
   -2.1106   -0.8051    1.6031 H   0  0  0  0  0  0  0  0  0  0  0  0
   -2.1871   -0.6825    0.6691 H   0  0  0  0  0  0  0  0  0  0  0  0
   -0.0339   -3.3392   -0.8125 H   0  0  0  0  0  0  0  0  0  0  0  0
    1.3244    0.5042    0.9976 H   0  0  0  0  0  0  0  0  0  0  0  0
   -0.4103   -2.3751    1.2432 H   0  0  0  0  0  0  0  0  0  0  0  0
   -1.9149   -0.4131   -1.4440 H   0  0  0  0  0  0  0  0  0  0  0  0
   -1.7784   -0.7404   -0.5734 H   0  0  0  0  0  0  0  0  0  0  0  0
    0.1507   -0.7332    1.6190 H   0  0  0  0  0  0  0  0  0  0  0  0
    0.0667    0.0827    2.0741 H   0  0  0  0  0  0  0  0  0  0  0  0
   -1.1652   -1.9455   -0.4350 H   0  0  0  0  0  0  0  0  0  0  0  0
    1.6524   -3.2095    0.9698 H   0  0  0  0  0  0  0  0  0  0  0  0
    0.9589   -1.6409    1.7566 H   0  0  0  0  0  0  0  0  0  0  0  0
    2.0038   -1.2169   -0.0136 H   0  0  0  0  0  0  0  0  0  0  0  0
   -0.0342    2.0097    2.3044 H   0  0  0  0  0  0  0  0  0  0  0  0
   -0.5651    2.4495    1.6621 H   0  0  0  0  0  0  0  0  0  0  0  0
   -0.9670   -3.9380   -1.4926 H   0  0  0  0  0  0  0  0  0  0  0  0
   -2.7092    0.6977   -0.9808 H   0  0  0  0  0  0  0  0  0  0  0  0
   -3.2896    1.3203   -1.3893 H   0  0  0  0  0  0  0  0  0  0  0  0
   -3.5675    0.8664   -0.6034 H   0  0  0  0  0  0  0  0  0  0  0  0
   -0.3526    2.7963   -1.7678 H   0  0  0  0  0  0  0  0  0  0  0  0
   -1.2780    2.6367   -1.8355 H   0  0  0  0  0  0  0  0  0  0  0  0
   -1.6554   -3.2754    1.8413 H   0  0  0  0  0  0  0  0  0  0  0  0
   -0.7896   -3.6108    1.6782 H   0  0  0  0  0  0  0  0  0  0  0  0
   -0.1001   -2.7245    0.1937 H   0  0  0  0  0  0  0  0  0  0  0  0
   -1.8819   -1.9779    1.6257 H   0  0  0  0  0  0  0  0  0  0  0  0
   -2.4821   -1.8506   -0.8767 H   0  0  0  0  0  0  0  0  0  0  0  0
   -2.6203   -1.5180   -1.7539 H   0  0  0  0  0  0  0  0  0  0  0  0
    0.4993   -0.4361    3.2019 H   0  0  0  0  0  0  0  0  0  0  0  0
    0.6584   -1.2701    2.7860 H   0  0  0  0  0  0  0  0  0  0  0  0
    2.1477   -2.4839    2.3600 H   0  0  0  0  0  0  0  0  0  0  0  0
    2.7296   -2.8528    1.7003 H   0  0  0  0  0  0  0  0  0  0  0  0
    2.1341   -3.4095    2.1905 H   0  0  0  0  0  0  0  0  0  0  0  0
   -1.1562   -2.3940    2.7215 H   0  0  0  0  0  0  0  0  0  0  0  0
   -0.2810   -2.7042    2.5440 H   0  0  0  0  0  0  0  0  0  0  0  0
   -1.2608   -4.9193   -0.6796 H   0  0  0  0  0  0  0  0  0  0  0  0
   -1.0848   -4.3932    0.0777 H   0  0  0  0  0  0  0  0  0  0  0  0
   -0.3707   -4.6292   -0.5076 H   0  0  0  0  0  0  0  0  0  0  0  0
    1.9776    2.9494   -3.0110 H   0  0  0  0  0  0  0  0  0  0  0  0
    0.8121    0.9702   -3.2904 H   0  0  0  0  0  0  0  0  0  0  0  0
   -0.0041    3.2648    2.4570 H   0  0  0  0  0  0  0  0  0  0  0  0
    0.2573    3.4067    1.6346 H   0  0  0  0  0  0  0  0  0  0  0  0
   -1.0901    3.4027   -0.8916 H   0  0  0  0  0  0  0  0  0  0  0  0
   -0.4403    2.9438   -0.5525 H   0  0  0  0  0  0  0  0  0  0  0  0
    0.9171   -3.2986    1.9526 H   0  0  0  0  0  0  0  0  0  0  0  0
   -1.9265   -3.4661   -0.4169 H   0  0  0  0  0  0  0  0  0  0  0  0
    1.1852    3.5327   -3.8933 H   0  0  0  0  0  0  0  0  0  0  0  0
    0.0266    1.5639   -4.1708 H   0  0  0  0  0  0  0  0  0  0  0  0
   -3.2375   -0.5288   -1.2638 H   0  0  0  0  0  0  0  0  0  0  0  0
   -3.5929   -1.2698   -0.9750 H   0  0  0  0  0  0  0  0  0  0  0  0
   -0.4548   -1.2469    3.3796 H   0  0  0  0  0  0  0  0  0  0  0  0
   -0.7236   -0.5462    2.9420 H   0  0  0  0  0  0  0  0  0  0  0  0
    0.2086    2.8446   -4.4747 H   0  0  0  0  0  0  0  0  0  0  0  0
   -1.4647   -3.5568    3.1367 H   0  0  0  0  0  0  0  0  0  0  0  0
   -0.6775   -3.8769    2.9443 H   0  0  0  0  0  0  0  0  0  0  0  0
    0.8158    2.9712    2.1987 H   0  0  0  0  0  0  0  0  0  0  0  0
   -1.2877    2.5902   -0.5154 H   0  0  0  0  0  0  0  0  0  0  0  0
   -3.0478   -0.7959   -0.4162 H   0  0  0  0  0  0  0  0  0  0  0  0
   -0.5903   -1.3236    2.4788 H   0  0  0  0  0  0  0  0  0  0  0  0
   -0.7382   -3.2272    3.5746 H   0  0  0  0  0  0  0  0  0  0  0  0
  1 38  2  0  0  0  0
  2 42  2  0  0  0  0
  3 52  2  0  0  0  0
  4 53  2  0  0  0  0
  5 55  2  0  0  0  0
 65  6  1  0  0  0  0
  6173  1  0  0  0  0
  7 60  2  0  0  0  0
 70  8  1  0  0  0  0
  8174  1  0  0  0  0
  9 64  2  0  0  0  0
 10 68  2  0  0  0  0
 11 69  2  0  0  0  0
 12 73  2  0  0  0  0
 13 75  2  0  0  0  0
 14 30  1  0  0  0  0
 14 42  1  0  0  0  0
 14 96  1  0  0  0  0
 15 36  1  0  0  0  0
 15 38  1  0  0  0  0
 15102  1  0  0  0  0
 16 35  1  0  0  0  0
 16 53  1  0  0  0  0
 16119  1  0  0  0  0
 17 40  1  0  0  0  0
 17 52  1  0  0  0  0
 17124  1  0  0  0  0
 37 18  1  0  0  0  0
 18 60  1  0  0  0  0
 18125  1  0  0  0  0
 19 50  1  0  0  0  0
 19 55  1  0  0  0  0
 19133  1  0  0  0  0
 49 20  1  0  0  0  0
 20 69  1  0  0  0  0
 20139  1  0  0  0  0
 21 56  1  0  0  0  0
 21 64  1  0  0  0  0
 21141  1  0  0  0  0
 22 54  1  0  0  0  0
 22 68  1  0  0  0  0
 22142  1  0  0  0  0
 59 23  1  0  0  0  0
 23 75  1  0  0  0  0
 23153  1  0  0  0  0
 61 24  1  0  0  0  0
 24 73  1  0  0  0  0
 24154  1  0  0  0  0
 25 66  1  0  0  0  0
 25169  1  0  0  0  0
 25170  1  0  0  0  0
 26 72  1  0  0  0  0
 26171  1  0  0  0  0
 26172  1  0  0  0  0
 27 76  1  0  0  0  0
 27177  1  0  0  0  0
 27178  1  0  0  0  0
 28 77  1  0  0  0  0
 28179  1  0  0  0  0
 28180  1  0  0  0  0
 29 79  1  0  0  0  0
 29182  1  0  0  0  0
 29183  1  0  0  0  0
 30 31  1  0  0  0  0
 30 38  1  0  0  0  0
 30 86  1  1  0  0  0
 31 32  1  0  0  0  0
 31 87  1  0  0  0  0
 31 88  1  0  0  0  0
 32 46  1  0  0  0  0
 32 47  1  0  0  0  0
 32 89  1  0  0  0  0
 33 34  1  0  0  0  0
 33 44  1  0  0  0  0
 33 57  1  0  0  0  0
 33 90  1  1  0  0  0
 34 39  1  0  0  0  0
 34 91  1  0  0  0  0
 34 92  1  0  0  0  0
 35 42  1  0  0  0  0
 35 45  1  0  0  0  0
 35 93  1  6  0  0  0
 36 48  1  0  0  0  0
 36 55  1  0  0  0  0
 36 94  1  1  0  0  0
 37 41  1  0  0  0  0
 37 52  1  0  0  0  0
 37 95  1  1  0  0  0
 39 43  1  0  0  0  0
 39 97  1  0  0  0  0
 39 98  1  0  0  0  0
 40 51  1  0  0  0  0
 40 53  1  0  0  0  0
 40 99  1  1  0  0  0
 41 54  1  0  0  0  0
 41100  1  0  0  0  0
 41101  1  0  0  0  0
 43 58  1  0  0  0  0
 43103  1  0  0  0  0
 43104  1  0  0  0  0
 44 71  1  0  0  0  0
 44105  1  0  0  0  0
 44106  1  0  0  0  0
 45 67  1  0  0  0  0
 45107  1  0  0  0  0
 45108  1  0  0  0  0
 46109  1  0  0  0  0
 46110  1  0  0  0  0
 46111  1  0  0  0  0
 47112  1  0  0  0  0
 47113  1  0  0  0  0
 47114  1  0  0  0  0
 48 66  1  0  0  0  0
 48116  1  0  0  0  0
 48117  1  0  0  0  0
 49 60  1  0  0  0  0
 49 62  1  0  0  0  0
 49115  1  6  0  0  0
 50 63  1  0  0  0  0
 50 64  1  0  0  0  0
 50118  1  1  0  0  0
 51 72  1  0  0  0  0
 51120  1  0  0  0  0
 51121  1  0  0  0  0
 54122  1  0  0  0  0
 54123  1  0  0  0  0
 56 65  1  0  0  0  0
 56 68  1  0  0  0  0
 56126  1  6  0  0  0
 57127  1  0  0  0  0
 57128  1  0  0  0  0
 57129  1  0  0  0  0
 58 73  1  0  0  0  0
 58130  1  0  0  0  0
 58131  1  0  0  0  0
 59 69  1  0  0  0  0
 59 70  1  0  0  0  0
 59132  1  6  0  0  0
 61 74  1  0  0  0  0
 61 75  1  0  0  0  0
 61134  1  6  0  0  0
 62 76  1  0  0  0  0
 62135  1  0  0  0  0
 62136  1  0  0  0  0
 63 77  1  0  0  0  0
 63137  1  0  0  0  0
 63138  1  0  0  0  0
 65 78  1  0  0  0  0
 65140  1  6  0  0  0
 66143  1  0  0  0  0
 66144  1  0  0  0  0
 67 81  2  0  0  0  0
 67 82  1  0  0  0  0
 70 80  1  0  0  0  0
 70145  1  6  0  0  0
 71146  1  0  0  0  0
 71147  1  0  0  0  0
 71148  1  0  0  0  0
 72149  1  0  0  0  0
 72150  1  0  0  0  0
 74 79  1  0  0  0  0
 74151  1  0  0  0  0
 74152  1  0  0  0  0
 76155  1  0  0  0  0
 76156  1  0  0  0  0
 77157  1  0  0  0  0
 77158  1  0  0  0  0
 78159  1  0  0  0  0
 78160  1  0  0  0  0
 78161  1  0  0  0  0
 79162  1  0  0  0  0
 79163  1  0  0  0  0
 80164  1  0  0  0  0
 80165  1  0  0  0  0
 80166  1  0  0  0  0
 81 83  1  0  0  0  0
 81167  1  0  0  0  0
 82 84  2  0  0  0  0
 82168  1  0  0  0  0
 83 85  2  0  0  0  0
 83175  1  0  0  0  0
 84 85  1  0  0  0  0
 84176  1  0  0  0  0
 85181  1  0  0  0  0
 25184  1  0  0  0  0
 26185  1  0  0  0  0
 27186  1  0  0  0  0
 28187  1  0  0  0  0
 29188  1  0  0  0  0
M  END
