@<TRIPOS>MOLECULE
ERG.pdb
 78 85 0 0 0
SMALL
GASTEIGER

@<TRIPOS>ATOM
      1  C         -6.3180   19.7970   -1.8560 C.3     1  ERG1        0.2150
      2  C         -6.6420   20.4890   -3.1720 C.3     1  ERG1       -0.0096
      3  O         -7.3410   20.0760   -0.8890 O.3     1  ERG1       -0.2988
      4  C         -7.6400   18.8710   -0.2100 C.3     1  ERG1        0.2691
      5  C         -9.1430   18.7330    0.0830 C.3     1  ERG1        0.0987
      6  C         -9.7240   19.6100    1.1910 C.3     1  ERG1       -0.0261
      7  C        -11.0040   18.8560    1.5590 C.3     1  ERG1       -0.0352
      8  C        -10.5880   17.3900    1.4730 C.3     1  ERG1        0.0154
      9  N         -9.5080   17.3820    0.5060 N.am    1  ERG1       -0.2900
     10  C         -8.8370   16.2370    0.1240 C.2     1  ERG1        0.2371
     11  O         -9.2220   15.1270    0.4930 O.2     1  ERG1       -0.2735
     12  C         -7.5540   16.4200   -0.7520 C.3     1  ERG1        0.1113
     13  N         -7.2600   17.8190   -1.0820 N.am    1  ERG1       -0.2331
     14  C         -6.3810   18.2730   -2.0270 C.2     1  ERG1        0.2707
     15  O         -5.7180   17.5980   -2.7970 O.2     1  ERG1       -0.2704
     16  C         -4.5730   21.4480   -1.2100 C.2     1  ERG1        0.2235
     17  O         -5.2650   22.4290   -1.4680 O.2     1  ERG1       -0.2750
     18  N         -5.0230   20.1540   -1.3170 N.am    1  ERG1       -0.2798
     19  H         -4.3410   19.4040   -1.2610 H       1  ERG1        0.1519
     20  C         -0.8930   22.8070    0.9590 C.3     1  ERG1       -0.0121
     21  N         -1.8660   21.8440    1.4780 N.3     1  ERG1       -0.2971
     22  C         -3.1660   21.9850    0.7940 C.3     1  ERG1        0.0138
     23  C         -3.1360   21.6000   -0.6980 C.3     1  ERG1        0.0670
     24  C         -2.3480   20.3360   -0.9520 C.2     1  ERG1       -0.0658
     25  C         -1.5990   19.7580    0.0080 C.2     1  ERG1       -0.0254
     26  C         -0.9620   18.4340   -0.2060 C.ar    1  ERG1       -0.0112
     27  C         -1.2420   17.4850   -1.2000 C.ar    1  ERG1       -0.0536
     28  C         -0.5770   16.2500   -1.2230 C.ar    1  ERG1       -0.0592
     29  C          0.3830   15.9090   -0.2600 C.ar    1  ERG1       -0.0378
     30  C          0.6500   16.8610    0.7270 C.ar    1  ERG1        0.0473
     31  N          1.5080   16.8540    1.8050 N.ar    1  ERG1       -0.3604
     32  C          1.4260   18.0480    2.4900 C.ar    1  ERG1        0.0060
     33  C          0.4960   18.8300    1.8450 C.ar    1  ERG1       -0.0200
     34  C          0.0040   18.0860    0.7490 C.ar    1  ERG1        0.0103
     35  C          0.0080   20.2170    2.0670 C.3     1  ERG1       -0.0059
     36  C         -1.4100   20.4210    1.4110 C.3     1  ERG1        0.0397
     37  H          2.1170   16.0860    2.0500 H       1  ERG1        0.1653
     38  O         -6.8300   18.7760    0.9380 O.3     1  ERG1       -0.3481
     39  H         -7.3880   18.3320    1.5960 H       1  ERG1        0.2145
     40  C         -6.3550   15.7530   -0.0410 C.3     1  ERG1       -0.0003
     41  C         -5.6700   14.7130   -0.8990 C.ar    1  ERG1       -0.0451
     42  C         -6.3750   13.5850   -1.3390 C.ar    1  ERG1       -0.0585
     43  C         -5.7440   12.6150   -2.1180 C.ar    1  ERG1       -0.0615
     44  C         -4.4020   12.7610   -2.4620 C.ar    1  ERG1       -0.0617
     45  C         -3.6900   13.8760   -2.0230 C.ar    1  ERG1       -0.0615
     46  C         -4.3190   14.8470   -1.2440 C.ar    1  ERG1       -0.0585
     47  H         -5.8740   20.2750   -3.8860 H       1  ERG1        0.0279
     48  H         -6.6990   21.5460   -3.0150 H       1  ERG1        0.0279
     49  H         -7.5810   20.1330   -3.5410 H       1  ERG1        0.0279
     50  H         -9.5420   19.0320   -0.8640 H       1  ERG1        0.0572
     51  H         -9.9420   20.5940    0.8330 H       1  ERG1        0.0286
     52  H         -9.0590   19.7580    2.0160 H       1  ERG1        0.0286
     53  H        -11.7890   19.0730    0.8650 H       1  ERG1        0.0281
     54  H        -11.3860   19.1260    2.5210 H       1  ERG1        0.0281
     55  H        -11.4030   16.7840    1.1370 H       1  ERG1        0.0465
     56  H        -10.2920   16.9920    2.4210 H       1  ERG1        0.0465
     57  H         -7.7380   15.9420   -1.6910 H       1  ERG1        0.0602
     58  H         -1.2920   23.7970    1.0420 H       1  ERG1        0.0391
     59  H         -0.6890   22.5890   -0.0690 H       1  ERG1        0.0391
     60  H          0.0130   22.7390    1.5250 H       1  ERG1        0.0391
     61  H         -3.4780   23.0060    0.8720 H       1  ERG1        0.0437
     62  H         -3.8430   21.3090    1.2740 H       1  ERG1        0.0437
     63  H         -2.6390   22.3840   -1.2300 H       1  ERG1        0.0450
     64  H         -2.3840   19.9030   -1.8880 H       1  ERG1        0.0583
     65  H         -1.9460   17.6980   -1.9240 H       1  ERG1        0.0624
     66  H         -0.8010   15.5740   -1.9700 H       1  ERG1        0.0618
     67  H          0.8690   14.9990   -0.2790 H       1  ERG1        0.0638
     68  H          1.9640   18.3070    3.3320 H       1  ERG1        0.0810
     69  H          0.7000   20.9070    1.6300 H       1  ERG1        0.0332
     70  H         -0.0730   20.3890    3.1200 H       1  ERG1        0.0332
     71  H         -2.0800   19.8590    2.0280 H       1  ERG1        0.0515
     72  H         -6.7070   15.2810    0.8530 H       1  ERG1        0.0336
     73  H         -5.6390   16.5190    0.1700 H       1  ERG1        0.0336
     74  H         -7.3690   13.4710   -1.0850 H       1  ERG1        0.0620
     75  H         -6.2720   11.7890   -2.4400 H       1  ERG1        0.0618
     76  H         -3.9360   12.0450   -3.0410 H       1  ERG1        0.0618
     77  H         -2.6950   13.9830   -2.2750 H       1  ERG1        0.0618
     78  H         -3.7860   15.6690   -0.9200 H       1  ERG1        0.0620
@<TRIPOS>BOND
     1     1     2    1
     2     1    14    1
     3     1    18    1
     4     1     3    1
     5     2    47    1
     6     2    48    1
     7     2    49    1
     8     3     4    1
     9     4    13    1
    10     4     5    1
    11     4    38    1
    12     5     9    1
    13     5     6    1
    14     5    50    1
    15     6     7    1
    16     6    51    1
    17     6    52    1
    18     7     8    1
    19     7    53    1
    20     7    54    1
    21     8     9    1
    22     8    55    1
    23     8    56    1
    24     9    10   am
    25    10    12    1
    26    10    11    2
    27    12    13    1
    28    12    40    1
    29    12    57    1
    30    13    14   am
    31    14    15    2
    32    16    17    2
    33    16    18   am
    34    16    23    1
    35    18    19    1
    36    20    21    1
    37    20    58    1
    38    20    59    1
    39    20    60    1
    40    21    22    1
    41    21    36    1
    42    22    23    1
    43    22    61    1
    44    22    62    1
    45    23    24    1
    46    23    63    1
    47    24    25    2
    48    24    64    1
    49    25    26    1
    50    25    36    1
    51    26    27   ar
    52    26    34   ar
    53    27    28   ar
    54    27    65    1
    55    28    29   ar
    56    28    66    1
    57    29    30   ar
    58    29    67    1
    59    30    34   ar
    60    30    31   ar
    61    31    37    1
    62    31    32   ar
    63    32    33   ar
    64    32    68    1
    65    33    34   ar
    66    33    35    1
    67    35    36    1
    68    35    69    1
    69    35    70    1
    70    36    71    1
    71    38    39    1
    72    40    41    1
    73    40    72    1
    74    40    73    1
    75    41    42   ar
    76    41    46   ar
    77    42    43   ar
    78    42    74    1
    79    43    44   ar
    80    43    75    1
    81    44    45   ar
    82    44    76    1
    83    45    46   ar
    84    45    77    1
    85    46    78    1
