@<TRIPOS>MOLECULE
ERG.pdb
   78    85     1     0     0
SMALL
bcc


@<TRIPOS>ATOM
      1 C           -6.3180    19.7970    -1.8560 c5         1 ERG       0.251200
      2 C1          -6.6420    20.4890    -3.1720 c3         1 ERG      -0.080100
      3 O           -7.3410    20.0760    -0.8890 os         1 ERG      -0.419600
      4 C2          -7.6400    18.8710    -0.2100 c5         1 ERG       0.473000
      5 C3          -9.1430    18.7330     0.0830 c5         1 ERG       0.083700
      6 C4          -9.7240    19.6100     1.1910 c5         1 ERG      -0.090400
      7 C5         -11.0040    18.8560     1.5590 c5         1 ERG      -0.099400
      8 C6         -10.5880    17.3900     1.4730 c5         1 ERG       0.086000
      9 N           -9.5080    17.3820     0.5060 n          1 ERG      -0.466800
     10 C7          -8.8370    16.2370     0.1240 c          1 ERG       0.679500
     11 O1          -9.2220    15.1270     0.4930 o          1 ERG      -0.623500
     12 C8          -7.5540    16.4200    -0.7520 c6         1 ERG       0.064700
     13 N1          -7.2600    17.8190    -1.0820 n          1 ERG      -0.532800
     14 C9          -6.3810    18.2730    -2.0270 c          1 ERG       0.688500
     15 O2          -5.7180    17.5980    -2.7970 o          1 ERG      -0.560500
     16 C10         -4.5730    21.4480    -1.2100 c          1 ERG       0.677100
     17 O3          -5.2650    22.4290    -1.4680 o          1 ERG      -0.589100
     18 N2          -5.0230    20.1540    -1.3170 ns         1 ERG      -0.546900
     19 H           -4.3410    19.4040    -1.2610 hn         1 ERG       0.325500
     20 C11         -0.8930    22.8070     0.9590 c3         1 ERG       0.147100
     21 N3          -1.8660    21.8440     1.4780 n3         1 ERG      -0.720600
     22 C12         -3.1660    21.9850     0.7940 c6         1 ERG       0.168800
     23 C13         -3.1360    21.6000    -0.6980 c6         1 ERG      -0.144500
     24 C14         -2.3480    20.3360    -0.9520 c2         1 ERG      -0.172200
     25 C15         -1.5990    19.7580     0.0080 ce         1 ERG      -0.063400
     26 C16         -0.9620    18.4340    -0.2060 ca         1 ERG      -0.007800
     27 C17         -1.2420    17.4850    -1.2000 ca         1 ERG      -0.141000
     28 C18         -0.5770    16.2500    -1.2230 ca         1 ERG      -0.119000
     29 C19          0.3830    15.9090    -0.2600 ca         1 ERG      -0.132000
     30 C20          0.6500    16.8610     0.7270 ca         1 ERG      -0.039200
     31 N4           1.5080    16.8540     1.8050 na         1 ERG      -0.195400
     32 C21          1.4260    18.0480     2.4900 cc         1 ERG      -0.091100
     33 C22          0.4960    18.8300     1.8450 cd         1 ERG      -0.144400
     34 C23          0.0040    18.0860     0.7490 ca         1 ERG      -0.101800
     35 C24          0.0080    20.2170     2.0670 c6         1 ERG       0.007800
     36 C25         -1.4100    20.4210     1.4110 c6         1 ERG       0.219700
     37 H1           2.1170    16.0860     2.0500 hn         1 ERG       0.299700
     38 O4          -6.8300    18.7760     0.9380 oh         1 ERG      -0.598800
     39 H2          -7.3880    18.3320     1.5960 ho         1 ERG       0.422000
     40 C26         -6.3550    15.7530    -0.0410 c3         1 ERG      -0.047100
     41 C27         -5.6700    14.7130    -0.8990 ca         1 ERG      -0.087300
     42 C28         -6.3750    13.5850    -1.3390 ca         1 ERG      -0.117500
     43 C29         -5.7440    12.6150    -2.1180 ca         1 ERG      -0.127500
     44 C30         -4.4020    12.7610    -2.4620 ca         1 ERG      -0.125000
     45 C31         -3.6900    13.8760    -2.0230 ca         1 ERG      -0.127500
     46 C32         -4.3190    14.8470    -1.2440 ca         1 ERG      -0.117500
     47 H3          -5.8740    20.2750    -3.8860 hc         1 ERG       0.072367
     48 H4          -6.6990    21.5460    -3.0150 hc         1 ERG       0.072367
     49 H5          -7.5810    20.1330    -3.5410 hc         1 ERG       0.072367
     50 H6          -9.5420    19.0320    -0.8640 h1         1 ERG       0.088700
     51 H7          -9.9420    20.5940     0.8330 hc         1 ERG       0.070200
     52 H8          -9.0590    19.7580     2.0160 hc         1 ERG       0.070200
     53 H9         -11.7890    19.0730     0.8650 hc         1 ERG       0.057200
     54 H10        -11.3860    19.1260     2.5210 hc         1 ERG       0.057200
     55 H11        -11.4030    16.7840     1.1370 h1         1 ERG       0.063200
     56 H12        -10.2920    16.9920     2.4210 h1         1 ERG       0.063200
     57 H13         -7.7380    15.9420    -1.6910 h1         1 ERG       0.112700
     58 H14         -1.2920    23.7970     1.0420 h1         1 ERG       0.036367
     59 H15         -0.6890    22.5890    -0.0690 h1         1 ERG       0.036367
     60 H16          0.0130    22.7390     1.5250 h1         1 ERG       0.036367
     61 H17         -3.4780    23.0060     0.8720 h1         1 ERG       0.065700
     62 H18         -3.8430    21.3090     1.2740 h1         1 ERG       0.065700
     63 H19         -2.6390    22.3840    -1.2300 hc         1 ERG       0.099700
     64 H20         -2.3840    19.9030    -1.8880 ha         1 ERG       0.142000
     65 H21         -1.9460    17.6980    -1.9240 ha         1 ERG       0.138000
     66 H22         -0.8010    15.5740    -1.9700 ha         1 ERG       0.130000
     67 H23          0.8690    14.9990    -0.2790 ha         1 ERG       0.134000
     68 H24          1.9640    18.3070     3.3320 h4         1 ERG       0.168000
     69 H25          0.7000    20.9070     1.6300 hc         1 ERG       0.056700
     70 H26         -0.0730    20.3890     3.1200 hc         1 ERG       0.056700
     71 H27         -2.0800    19.8590     2.0280 h1         1 ERG       0.071700
     72 H28         -6.7070    15.2810     0.8530 hc         1 ERG       0.066200
     73 H29         -5.6390    16.5190     0.1700 hc         1 ERG       0.066200
     74 H30         -7.3690    13.4710    -1.0850 ha         1 ERG       0.132000
     75 H31         -6.2720    11.7890    -2.4400 ha         1 ERG       0.134500
     76 H32         -3.9360    12.0450    -3.0410 ha         1 ERG       0.130000
     77 H33         -2.6950    13.9830    -2.2750 ha         1 ERG       0.134500
     78 H34         -3.7860    15.6690    -0.9200 ha         1 ERG       0.132000
@<TRIPOS>BOND
     1     1     2 1   
     2     1    14 1   
     3     1    18 1   
     4     1     3 1   
     5     2    47 1   
     6     2    48 1   
     7     2    49 1   
     8     3     4 1   
     9     4    13 1   
    10     4     5 1   
    11     4    38 1   
    12     5     9 1   
    13     5     6 1   
    14     5    50 1   
    15     6     7 1   
    16     6    51 1   
    17     6    52 1   
    18     7     8 1   
    19     7    53 1   
    20     7    54 1   
    21     8     9 1   
    22     8    55 1   
    23     8    56 1   
    24     9    10 1   
    25    10    12 1   
    26    10    11 2   
    27    12    13 1   
    28    12    40 1   
    29    12    57 1   
    30    13    14 1   
    31    14    15 2   
    32    16    17 2   
    33    16    18 1   
    34    16    23 1   
    35    18    19 1   
    36    20    21 1   
    37    20    58 1   
    38    20    59 1   
    39    20    60 1   
    40    21    22 1   
    41    21    36 1   
    42    22    23 1   
    43    22    61 1   
    44    22    62 1   
    45    23    24 1   
    46    23    63 1   
    47    24    25 2   
    48    24    64 1   
    49    25    26 1   
    50    25    36 1   
    51    26    27 ar  
    52    26    34 ar  
    53    27    28 ar  
    54    27    65 1   
    55    28    29 ar  
    56    28    66 1   
    57    29    30 ar  
    58    29    67 1   
    59    30    34 ar  
    60    30    31 1   
    61    31    37 1   
    62    31    32 1   
    63    32    33 2   
    64    32    68 1   
    65    33    34 1   
    66    33    35 1   
    67    35    36 1   
    68    35    69 1   
    69    35    70 1   
    70    36    71 1   
    71    38    39 1   
    72    40    41 1   
    73    40    72 1   
    74    40    73 1   
    75    41    42 ar  
    76    41    46 ar  
    77    42    43 ar  
    78    42    74 1   
    79    43    44 ar  
    80    43    75 1   
    81    44    45 ar  
    82    44    76 1   
    83    45    46 ar  
    84    45    77 1   
    85    46    78 1   
@<TRIPOS>SUBSTRUCTURE
     1 ERG         1 TEMP              0 ****  ****    0 ROOT
