@<TRIPOS>MOLECULE
PDL_H_optimized_nopd.pdb
   64    66     1     0     0
SMALL
bcc


@<TRIPOS>ATOM
      1 C           20.2230    37.8490    20.6020 cc         1 LIG      -0.113000
      2 C1          23.1870    41.8950    17.7620 cc         1 LIG      -0.113000
      3 C2          21.1430    35.4460    20.6730 c          1 LIG       0.751200
      4 C3          22.2720    44.2930    17.6860 c          1 LIG       0.751200
      5 C4          21.3310    36.9090    20.4420 cc         1 LIG       0.175600
      6 C5          22.0770    42.8340    17.9190 cc         1 LIG       0.175600
      7 N           20.2280    39.0890    20.2650 n1         1 LIG      -0.056000
      8 N1          23.1830    40.6560    18.0980 n1         1 LIG      -0.056000
      9 N2          22.5760    37.2470    20.1990 nf         1 LIG      -0.149400
     10 N3          20.8320    42.4980    18.1630 nf         1 LIG      -0.149400
     11 N4          19.0840    37.3260    21.2770 n          1 LIG      -0.325000
     12 N5          24.3270    42.4200    17.0880 n          1 LIG      -0.325000
     13 N6          19.8980    35.0930    21.1960 n          1 LIG      -0.501400
     14 N7          23.5170    44.6510    17.1750 n          1 LIG      -0.501400
     15 O           17.8540    35.5660    22.0700 o          1 LIG      -0.591500
     16 O1          25.5770    44.1660    16.3070 o          1 LIG      -0.591500
     17 O2          21.9940    34.6190    20.4110 o          1 LIG      -0.573500
     18 O3          21.4300    45.1340    17.9320 o          1 LIG      -0.573500
     19 N8          22.9550    38.4650    19.9310 n2         1 LIG      -0.135900
     20 N9          20.4530    41.2790    18.4310 n2         1 LIG      -0.135900
     21 C6          18.8730    35.9880    21.5530 c          1 LIG       0.816500
     22 C7          24.5490    43.7590    16.8180 c          1 LIG       0.816500
     23 C8          19.6240    33.6800    21.4550 c3         1 LIG       0.080300
     24 C9          23.7340    46.0800    16.9470 c3         1 LIG       0.080300
     25 C10         18.0330    38.2730    21.6470 c3         1 LIG       0.074300
     26 C11         25.3750    41.4690    16.7170 c3         1 LIG       0.074300
     27 C12         24.3310    38.6540    20.0580 ca         1 LIG       0.004600
     28 C13         25.2390    37.5640    19.9910 ca         1 LIG      -0.088000
     29 C14         26.5960    37.7710    20.1200 ca         1 LIG      -0.190500
     30 C15         27.1210    39.0730    20.3540 ca         1 LIG       0.155600
     31 C16         26.2120    40.1510    20.4550 ca         1 LIG      -0.190500
     32 C17         24.8500    39.9490    20.2990 ca         1 LIG      -0.088000
     33 N10         28.4620    39.2640    20.5000 nv         1 LIG      -0.806200
     34 C18         19.0770    41.0900    18.3040 ca         1 LIG       0.004600
     35 C19         18.5590    39.7940    18.0660 ca         1 LIG      -0.088000
     36 C20         17.1970    39.5910    17.9110 ca         1 LIG      -0.190500
     37 C21         16.2880    40.6700    18.0100 ca         1 LIG       0.155600
     38 C22         16.8120    41.9720    18.2420 ca         1 LIG      -0.190500
     39 C23         18.1690    42.1800    18.3690 ca         1 LIG      -0.088000
     40 N11         14.9470    40.4790    17.8640 nv         1 LIG      -0.806200
     41 H           20.4880    33.1060    21.1060 h1         1 LIG       0.066700
     42 H1          19.4620    33.5120    22.5300 h1         1 LIG       0.066700
     43 H2          18.7130    33.3680    20.9260 h1         1 LIG       0.066700
     44 H3          24.7500    46.2130    16.5670 h1         1 LIG       0.066700
     45 H4          23.0010    46.4620    16.2220 h1         1 LIG       0.066700
     46 H5          23.5920    46.6320    17.8870 h1         1 LIG       0.066700
     47 H6          18.4690    39.1020    22.2210 h1         1 LIG       0.068033
     48 H7          17.5630    38.7020    20.7500 h1         1 LIG       0.068033
     49 H8          17.2900    37.7340    22.2420 h1         1 LIG       0.068033
     50 H9          26.1150    42.0020    16.1130 h1         1 LIG       0.068033
     51 H10         25.8500    41.0460    17.6140 h1         1 LIG       0.068033
     52 H11         24.9320    40.6370    16.1540 h1         1 LIG       0.068033
     53 H12         24.8380    36.5650    19.8210 ha         1 LIG       0.136500
     54 H13         27.2840    36.9250    20.0380 ha         1 LIG       0.137000
     55 H14         26.5890    41.1550    20.6710 ha         1 LIG       0.137000
     56 H15         24.1580    40.7790    20.4230 ha         1 LIG       0.136500
     57 H16         29.1100    38.4980    20.3770 hn         1 LIG       0.399300
     58 H17         28.8460    40.1940    20.5860 hn         1 LIG       0.399300
     59 H18         19.2510    38.9640    17.9430 ha         1 LIG       0.136500
     60 H19         16.8200    38.5880    17.6970 ha         1 LIG       0.137000
     61 H20         16.1240    42.8180    18.3220 ha         1 LIG       0.137000
     62 H21         18.5700    43.1790    18.5370 ha         1 LIG       0.136500
     63 H22         14.5620    39.5480    17.7800 hn         1 LIG       0.399300
     64 H23         14.2990    41.2440    17.9860 hn         1 LIG       0.399300
@<TRIPOS>BOND
     1    50    26 1   
     2    52    26 1   
     3    45    24 1   
     4    16    22 2   
     5    44    24 1   
     6    26    12 1   
     7    26    51 1   
     8    22    12 1   
     9    22    14 1   
    10    24    14 1   
    11    24    46 1   
    12    12     2 1   
    13    14     4 1   
    14     4     6 1   
    15     4    18 2   
    16    60    36 1   
    17     2     6 1   
    18     2     8 2   
    19    63    40 1   
    20    40    64 1   
    21    40    37 1   
    22    36    37 ar  
    23    36    35 ar  
    24     6    10 2   
    25    59    35 1   
    26    37    38 ar  
    27    35    34 ar  
    28    10    20 1   
    29    38    61 1   
    30    38    39 ar  
    31    34    39 ar  
    32    34    20 1   
    33    39    62 1   
    34    53    28 1   
    35    19    27 1   
    36    19     9 1   
    37    28    27 ar  
    38    28    29 ar  
    39    54    29 1   
    40    27    32 ar  
    41    29    30 ar  
    42     9     5 2   
    43     7     1 2   
    44    32    56 1   
    45    32    31 ar  
    46    30    31 ar  
    47    30    33 1   
    48    57    33 1   
    49    17     3 2   
    50     5     1 1   
    51     5     3 1   
    52    31    55 1   
    53    33    58 1   
    54     1    11 1   
    55     3    13 1   
    56    48    25 1   
    57    43    23 1   
    58    41    23 1   
    59    13    23 1   
    60    13    21 1   
    61    11    21 1   
    62    11    25 1   
    63    23    42 1   
    64    21    15 2   
    65    25    47 1   
    66    25    49 1   
@<TRIPOS>SUBSTRUCTURE
     1 LIG         1 TEMP              0 ****  ****    0 ROOT
