@<TRIPOS>MOLECULE
PDL_H_optimized_nopd.pdb
 64 66 0 0 0
SMALL
GASTEIGER

@<TRIPOS>ATOM
      1 C          20.2230   37.8490   20.6020 C.2     1  LIG1        0.4065
      2 C          23.1870   41.8950   17.7620 C.2     1  LIG1        0.4065
      3 C          21.1430   35.4460   20.6730 C.2     1  LIG1        0.2835
      4 C          22.2720   44.2930   17.6860 C.2     1  LIG1        0.2835
      5 C          21.3310   36.9090   20.4420 C.2     1  LIG1        0.2408
      6 C          22.0770   42.8340   17.9190 C.2     1  LIG1        0.2408
      7 N          20.2280   39.0890   20.2650 N.2     1  LIG1        0.1957
      8 N          23.1830   40.6560   18.0980 N.2     1  LIG1        0.1957
      9 N          22.5760   37.2470   20.1990 N.2     1  LIG1       -0.1464
     10 N          20.8320   42.4980   18.1630 N.2     1  LIG1       -0.1464
     11 N          19.0840   37.3260   21.2770 N.am    1  LIG1       -0.1366
     12 N          24.3270   42.4200   17.0880 N.am    1  LIG1       -0.1366
     13 N          19.8980   35.0930   21.1960 N.am    1  LIG1       -0.2030
     14 N          23.5170   44.6510   17.1750 N.am    1  LIG1       -0.2030
     15 O          17.8540   35.5660   22.0700 O.2     1  LIG1       -0.2230
     16 O          25.5770   44.1660   16.3070 O.2     1  LIG1       -0.2230
     17 O          21.9940   34.6190   20.4110 O.2     1  LIG1       -0.2674
     18 O          21.4300   45.1340   17.9320 O.2     1  LIG1       -0.2674
     19 N          22.9550   38.4650   19.9310 N.pl3   1  LIG1       -0.1181
     20 N          20.4530   41.2790   18.4310 N.pl3   1  LIG1       -0.1181
     21 C          18.8730   35.9880   21.5530 C.2     1  LIG1        0.4030
     22 C          24.5490   43.7590   16.8180 C.2     1  LIG1        0.4030
     23 C          19.6240   33.6800   21.4550 C.3     1  LIG1        0.0147
     24 C          23.7340   46.0800   16.9470 C.3     1  LIG1        0.0147
     25 C          18.0330   38.2730   21.6470 C.3     1  LIG1        0.0795
     26 C          25.3750   41.4690   16.7170 C.3     1  LIG1        0.0795
     27 C          24.3310   38.6540   20.0580 C.ar    1  LIG1        0.0749
     28 C          25.2390   37.5640   19.9910 C.ar    1  LIG1       -0.0353
     29 C          26.5960   37.7710   20.1200 C.ar    1  LIG1       -0.0392
     30 C          27.1210   39.0730   20.3540 C.ar    1  LIG1        0.0247
     31 C          26.2120   40.1510   20.4550 C.ar    1  LIG1       -0.0392
     32 C          24.8500   39.9490   20.2990 C.ar    1  LIG1       -0.0353
     33 N          28.4620   39.2640   20.5000 N.pl3   1  LIG1       -0.3580
     34 C          19.0770   41.0900   18.3040 C.ar    1  LIG1        0.0749
     35 C          18.5590   39.7940   18.0660 C.ar    1  LIG1       -0.0353
     36 C          17.1970   39.5910   17.9110 C.ar    1  LIG1       -0.0392
     37 C          16.2880   40.6700   18.0100 C.ar    1  LIG1        0.0247
     38 C          16.8120   41.9720   18.2420 C.ar    1  LIG1       -0.0392
     39 C          18.1690   42.1800   18.3690 C.ar    1  LIG1       -0.0353
     40 N          14.9470   40.4790   17.8640 N.pl3   1  LIG1       -0.3580
     41 H          20.4880   33.1060   21.1060 H       1  LIG1        0.0435
     42 H          19.4620   33.5120   22.5300 H       1  LIG1        0.0435
     43 H          18.7130   33.3680   20.9260 H       1  LIG1        0.0435
     44 H          24.7500   46.2130   16.5670 H       1  LIG1        0.0435
     45 H          23.0010   46.4620   16.2220 H       1  LIG1        0.0435
     46 H          23.5920   46.6320   17.8870 H       1  LIG1        0.0435
     47 H          18.4690   39.1020   22.2210 H       1  LIG1        0.0694
     48 H          17.5630   38.7020   20.7500 H       1  LIG1        0.0694
     49 H          17.2900   37.7340   22.2420 H       1  LIG1        0.0694
     50 H          26.1150   42.0020   16.1130 H       1  LIG1        0.0694
     51 H          25.8500   41.0460   17.6140 H       1  LIG1        0.0694
     52 H          24.9320   40.6370   16.1540 H       1  LIG1        0.0694
     53 H          24.8380   36.5650   19.8210 H       1  LIG1        0.0638
     54 H          27.2840   36.9250   20.0380 H       1  LIG1        0.0636
     55 H          26.5890   41.1550   20.6710 H       1  LIG1        0.0636
     56 H          24.1580   40.7790   20.4230 H       1  LIG1        0.0638
     57 H          29.1100   38.4980   20.3770 H       1  LIG1        0.1423
     58 H          28.8460   40.1940   20.5860 H       1  LIG1        0.1423
     59 H          19.2510   38.9640   17.9430 H       1  LIG1        0.0638
     60 H          16.8200   38.5880   17.6970 H       1  LIG1        0.0636
     61 H          16.1240   42.8180   18.3220 H       1  LIG1        0.0636
     62 H          18.5700   43.1790   18.5370 H       1  LIG1        0.0638
     63 H          14.5620   39.5480   17.7800 H       1  LIG1        0.1423
     64 H          14.2990   41.2440   17.9860 H       1  LIG1        0.1423
@<TRIPOS>BOND
     1    50    26    1
     2    52    26    1
     3    45    24    1
     4    16    22    2
     5    44    24    1
     6    26    12    1
     7    26    51    1
     8    22    12   am
     9    22    14   am
    10    24    14    1
    11    24    46    1
    12    12     2    1
    13    14     4   am
    14     4     6    1
    15     4    18    2
    16    60    36    1
    17     2     6    1
    18     2     8    2
    19    63    40    1
    20    40    64    1
    21    40    37    1
    22    36    37   ar
    23    36    35   ar
    24     6    10    2
    25    59    35    1
    26    37    38   ar
    27    35    34   ar
    28    10    20    1
    29    38    61    1
    30    38    39   ar
    31    34    39   ar
    32    34    20    1
    33    39    62    1
    34    53    28    1
    35    19    27    1
    36    19     9    1
    37    28    27   ar
    38    28    29   ar
    39    54    29    1
    40    27    32   ar
    41    29    30   ar
    42     9     5    2
    43     7     1    2
    44    32    56    1
    45    32    31   ar
    46    30    31   ar
    47    30    33    1
    48    57    33    1
    49    17     3    2
    50     5     1    1
    51     5     3    1
    52    31    55    1
    53    33    58    1
    54     1    11    1
    55     3    13   am
    56    48    25    1
    57    43    23    1
    58    41    23    1
    59    13    23    1
    60    13    21   am
    61    11    21   am
    62    11    25    1
    63    23    42    1
    64    21    15    2
    65    25    47    1
    66    25    49    1
